Measurement: Raman, 532 nm, unoriented, Raman Data Processed
Mineral: Howieite
Rruff sample: R061009
Ideal chemistry: Na(Fe^2+^,Fe^3+^,Al,Mg)_12_(Si_6_O_17_)_2_(O,OH)_10_
Locality: Quarry on north side of U.S. 101, 5 miles south of Laytonville, Mendocino County, California, USA
Source: Michael Scott
Description: Dark brown bladed crystals in plumose aggregates
Raman shift (cm-1)	intensity
142.736	0
145.629	96.8634
148.522	174.718
151.414	218.815
154.307	109.221
157.2	78.6967
160.092	7.06506
162.985	20.3928
165.878	56.8818
168.77	6.46423
171.663	31.9546
174.556	15.229
177.448	43.4686
180.341	103.349
183.234	200.466
186.127	293.775
189.019	339.412
191.912	353.296
194.805	297.501
197.697	207.718
200.59	97.6757
203.483	41.6049
206.375	70.144
209.268	40.71
212.161	37.7139
215.054	53.2727
217.946	36.5769
220.839	39.1086
223.732	5.3689
226.624	14.1157
229.517	9.23535
232.41	11.8534
235.303	37.1624
238.195	61.2134
241.088	69.1597
243.981	106.613
246.873	157.64
249.766	134.269
252.659	125.763
255.551	91.1409
258.444	60.5963
261.337	57.7322
264.229	80.6148
267.122	28.0637
270.015	37.254
272.908	30.5753
275.8	54.519
278.693	54.8517
281.586	22.1876
284.478	1.00464
287.371	11.6199
290.264	91.6724
293.156	172.696
296.049	200.586
298.942	290.363
301.834	301.933
304.727	270.25
307.62	263.822
310.513	211.002
313.405	126.852
316.298	48.7793
319.191	29.2436
322.083	23.5879
324.976	20.3326
327.869	22.6123
330.762	1.08106
333.654	38.8481
336.547	129.118
339.44	180.69
342.332	242.231
345.225	230.106
348.118	207.722
351.01	260.404
353.903	196.705
356.796	188.627
359.688	209.913
362.581	184.052
365.474	205.567
368.366	165.951
371.259	230.091
374.152	195.357
377.045	152.85
379.937	125.472
382.83	96.0991
385.723	95.1921
388.615	113.074
391.508	124.392
394.401	149.039
397.293	183.089
400.186	239.138
403.079	267.513
405.972	299.53
408.864	259.277
411.757	286.081
414.65	265.245
417.542	262.795
420.435	254.512
423.328	261.16
426.221	264.623
429.113	286.203
432.006	288.929
434.899	317.666
437.791	284.822
440.684	288.873
443.577	312.255
446.469	298.515
449.362	282.886
452.255	267.447
455.147	213.283
458.04	209.667
460.933	160.727
463.826	134.151
466.718	106.66
469.611	98.0809
472.504	68.0317
475.396	43.9611
478.289	51.8967
481.182	37.7893
484.074	27.5907
486.967	5.07812
489.86	72.2306
492.752	43.85
495.645	42.5045
498.538	8.70325
501.431	6.78638
504.323	7.47522
507.216	9.14453
510.109	5.28186
513.001	8.37097
515.894	9.80725
518.787	6.75708
521.679	0.454102
524.572	7.17419
527.465	9.74402
530.358	9.95996
533.25	20.4428
536.143	2.93237
539.036	66.58
541.928	61.1746
544.821	90.4813
547.714	114.913
550.606	126.381
553.499	202.413
556.392	206.321
559.284	248.462
562.177	245.857
565.07	191.497
567.963	197.601
570.855	91.0651
573.748	100.901
576.641	52.1576
579.533	18.6654
582.426	15.9603
585.319	10.587
588.212	4.23022
591.104	9.66925
593.997	15.3055
596.89	22.6638
599.782	26.9387
602.675	61.6254
605.568	75.9847
608.46	130.05
611.353	162.221
614.246	179.968
617.139	158.267
620.031	191.702
622.924	197.367
625.817	194.778
628.709	167.356
631.602	82.6175
634.495	80.5574
637.387	55.7886
640.28	58.8355
643.173	85.2288
646.066	87.7415
648.958	166.342
651.851	288.355
654.744	443.68
657.636	620.955
660.529	861.512
663.422	1149.84
666.314	1310.13
669.207	1235.67
672.1	954.602
674.992	540.977
677.885	281.584
680.778	216.125
683.67	110.639
686.563	80.4637
689.456	82.6381
692.349	72.3463
695.241	58.2877
698.134	186.538
701.027	170.144
703.919	208.901
706.812	293.765
709.705	278.651
712.597	252.173
715.49	297.431
718.383	247.006
721.276	219.645
724.168	155.715
727.061	133.798
729.954	41.0851
732.846	40.5699
735.739	63.2025
738.632	7.45843
741.524	31.5089
744.417	21.5024
747.31	13.5928
750.203	12.7087
753.095	5.53809
755.988	38.6642
758.881	28.6053
761.773	22.0867
764.666	22.0811
767.559	61.1448
770.452	75.8542
773.344	54.5627
776.237	36.9749
779.13	34.5693
782.022	62.8522
784.915	67.3946
787.808	63.7334
790.7	82.5543
793.593	114.749
796.486	113.476
799.378	146.034
802.271	101.548
805.164	85.3336
808.057	81.3871
810.949	83.6528
813.842	87.7084
816.735	99.2756
819.627	85.5012
822.52	104.774
825.413	105.25
828.305	101.748
831.198	83.7888
834.091	68.1677
836.984	48.2891
839.876	58.3683
842.769	28.8409
845.662	16.0145
848.554	42.4518
851.447	8.81586
854.34	9.74945
857.232	27.5178
860.125	45.3088
863.018	16.1509
865.91	46.4455
868.803	51.9173
871.696	36.9734
874.589	24.3656
877.481	16.1052
880.374	47.8571
883.267	39.9467
886.159	17.4125
889.052	1.39417
891.945	20.3926
894.837	19.0928
897.73	19.7136
900.623	0.212585
903.516	3.05402
906.408	3.66516
909.301	15.4878
912.194	0.125916
915.086	23.1955
917.979	17.6666
920.872	1.78741
923.764	14.2229
926.657	44.2308
929.55	20.9849
932.442	30.3448
935.335	55.5682
938.228	82.0959
941.121	81.7638
944.013	151.227
946.906	191.619
949.799	227.127
952.691	240.639
955.584	285.52
958.477	298.072
961.37	360.067
964.262	310.193
967.155	377.854
970.048	419.158
972.94	461.412
975.833	437.579
978.726	513.815
981.618	493.25
984.511	478.819
987.404	418.754
990.296	361.156
993.189	360.1
996.082	340.03
998.975	322.799
1001.87	332.298
1004.76	381.049
1007.65	350.945
1010.54	352.327
1013.44	375.493
1016.33	318.347
1019.22	238.806
1022.12	250.475
1025.01	230.312
1027.9	222.889
1030.79	166.189
1033.69	162.457
1036.58	123.047
1039.47	164.669
1042.37	67.2711
1045.26	20.3081
1048.15	12.006
1051.04	3.92786
1053.94	17.7223
1056.83	0.737549
1059.72	3.6181
1062.61	35.2907
1065.51	1.23639
1068.4	15.4977
1071.29	33.5549
1074.18	39.9187
1077.08	64.5313
1079.97	101.966
1082.86	102.367
1085.76	92.4044
1088.65	82.5706
1091.54	114.707
1094.43	65.1253
1097.33	55.4852
1100.22	45.0062
1103.11	88.0812
1106	84.9998
1108.9	95.7842
1111.79	87.5945
1114.68	35.2304
1117.58	48.9853
1120.47	53.4803
1123.36	40.3746
1126.25	9.30975
1129.15	49.7564
1132.04	62.8484
1134.93	40.6198
1137.82	30.5395
1140.72	14.0627
1143.61	19.0272
1146.5	9.66986
1149.39	5.93097
1152.29	45.6348
1155.18	17.9881
1158.07	21.6121
1160.97	30.5769
1163.86	46.6946
1166.75	20.5933
1169.64	7.65521
1172.54	16.1305
1175.43	84.1174
1178.32	46.3432
1181.21	41.8669
1184.11	42.1086
1187	24.6692
1189.89	29.3137
1192.79	49.9681
1195.68	63.6818
1198.57	24.6542
1201.46	16.8856
1204.36	53.0667
1207.25	7.11969
1210.14	35.2507
1213.03	81.4622
1215.93	25.1109
1218.82	43.5334
1221.71	49.9347
1224.61	59.1498
1227.5	33.9022
1230.39	41.9401
1233.28	43.4035
1236.18	36.064
1239.07	41.9347
1241.96	44.0121
1244.85	41.5624
1247.75	55.3723
1250.64	63.8614
1253.53	6.35693
1256.42	32.4559
1259.32	25.1061
1262.21	16.8282
1265.1	20.5799
1267.99	27.4211
1270.89	65.1969
1273.78	63.1201
1276.67	50.1849
1279.57	51.1212
1282.46	0.824036
