Measurement: Raman, 532 nm, unoriented, Raman Data Processed
Mineral: Howieite
Rruff sample: R060031
Ideal chemistry: Na(Fe^2+^,Fe^3+^,Al,Mg)_12_(Si_6_O_17_)_2_(O,OH)_10_
Locality: Laytonville quarry, near Longvale, California, USA
Source: University of Arizona Mineral Museum
Description: Black bladed crystals associated with quartz and siderite
Measured chemistry: Na_1.00_(Fe^3+^_4.41_Mn_2.68_Fe^2+^_3.89_Al_0.59_Mg_0.43_)_Î£=12_(Si_6.00_O_17_)_2_(OH)_10_
Raman shift (cm-1)	intensity
178.011	0
180.903	3.83691
183.796	6.39941
186.689	11.9534
189.581	18.8359
192.474	21.2323
195.367	21.1735
198.26	16.0525
201.152	6.4384
204.045	4.50911
206.938	0.104462
209.83	0.560318
212.723	0.572525
215.616	0.809891
218.508	1.93462
221.401	1.57365
224.294	1.79872
227.186	1.64291
230.079	2.34511
232.972	0.160324
235.865	1.68446
238.757	3.43749
241.65	3.75079
244.543	5.39719
247.435	6.38351
250.328	4.65259
253.221	4.12944
256.113	4.59526
259.006	3.20099
261.899	2.3983
264.792	3.05682
267.684	2.41499
270.577	2.83452
273.47	2.00194
276.362	1.88875
279.255	1.77359
282.148	1.25932
285.041	1.82292
287.933	1.92635
290.826	3.61311
293.719	4.30563
296.611	4.61212
299.504	7.05547
302.397	6.26942
305.289	6.63219
308.182	8.09078
311.075	5.34076
313.967	3.36937
316.86	2.34944
319.753	1.42535
322.646	0.113724
325.538	0.133469
328.431	0.115631
331.324	1.16283
334.216	3.50993
337.109	4.94261
340.002	8.65321
342.894	8.45612
345.787	11.2226
348.68	9.24101
351.573	6.618
354.465	6.12213
357.358	4.72661
360.251	5.57091
363.143	6.15784
366.036	6.61671
368.929	5.96246
371.822	5.23131
374.714	5.71509
377.607	5.36049
380.5	4.37939
383.392	3.21532
386.285	0.956131
389.178	0.365234
392.07	0.628632
394.963	0.684937
397.856	0.505966
400.748	1.44382
403.641	2.87392
406.534	6.34204
409.427	7.13145
412.319	7.29376
415.212	8.01697
418.105	10.9178
420.997	13.0426
423.89	16.3301
426.783	16.1246
429.675	18.8583
432.568	19.596
435.461	18.7114
438.354	19.7991
441.246	20.2323
444.139	21.1466
447.032	23.6308
449.924	22.6976
452.817	19.5218
455.71	17.1439
458.603	14.4177
461.495	11.0589
464.388	6.27023
467.281	4.61205
470.173	2.75887
473.066	2.17552
475.959	2.20059
478.851	2.42122
481.744	3.79189
484.637	4.98531
487.529	4.99954
490.422	6.8181
493.315	7.19871
496.208	7.67761
499.1	6.95215
501.993	6.39122
504.886	5.90517
507.778	3.37033
510.671	3.01764
513.564	2.08366
516.457	0.412842
519.349	0.609924
522.242	0.969559
525.135	0.290482
528.027	1.87436
530.92	1.60962
533.813	2.16791
536.705	2.48245
539.598	2.98546
542.491	3.60869
545.384	4.70845
548.276	6.31355
551.169	7.77782
554.062	8.67455
556.954	10.4488
559.847	12.5422
562.74	12.3785
565.632	10.774
568.525	7.45381
571.418	6.15724
574.311	4.68285
577.203	2.04324
580.096	1.75783
582.989	0.639526
585.881	0.509094
588.774	0.683655
591.667	0.087173
594.559	0.185349
597.452	1.15147
600.345	1.12465
603.237	1.62613
606.13	4.45004
609.023	5.0087
611.916	6.574
614.808	6.495
617.701	5.49121
620.594	5.0704
623.486	5.4855
626.379	5.39206
629.272	4.26471
632.164	4.11142
635.057	3.91139
637.95	3.07922
640.843	2.65532
643.735	3.95355
646.628	5.29585
649.521	7.12628
652.413	11.8089
655.306	16.7147
658.199	25.3649
661.091	34.5527
663.984	47.0339
666.877	57.4051
669.77	60.5339
672.662	45.9939
675.555	28.0039
678.448	15.2875
681.34	8.56805
684.233	4.29785
687.126	0.233887
690.019	0.209198
692.911	0.820633
695.804	0.209503
698.697	2.06334
701.589	4.29369
704.482	6.03465
707.375	8.53628
710.267	9.97864
713.16	10.3003
716.053	9.9772
718.946	9.84441
721.838	8.33385
724.731	7.88178
727.624	4.53545
730.516	1.69478
733.409	0.021576
736.302	0.266388
739.194	0.2565
742.087	0.144867
744.98	0.012405
747.872	0.026794
750.765	0.275284
753.658	0.799179
756.551	0.553955
759.443	0.599472
762.336	0.681473
765.229	0.235687
768.121	1.591
771.014	2.33907
773.907	3.0587
776.799	3.57875
779.692	5.09087
782.585	5.35646
785.478	8.49986
788.37	7.85832
791.263	9.57855
794.156	10.6018
797.048	11.1043
799.941	12.6954
802.834	13.2356
805.726	15.4446
808.619	15.978
811.512	16.81
814.405	18.5328
817.297	18.6046
820.19	21.5764
823.083	23.0567
825.975	22.8874
828.868	26.5954
831.761	26.4411
834.654	29.2112
837.546	29.3532
840.439	30.8001
843.332	31.9824
846.224	34.7075
849.117	34.7683
852.01	33.2322
854.902	34.9264
857.795	34.8519
860.688	36.0034
863.581	35.3815
866.473	37.0417
869.366	34.9164
872.259	33.5862
875.151	31.7412
878.044	29.5932
880.937	26.9231
883.829	24.6002
886.722	21.451
889.615	20.2594
892.508	18.5121
895.4	13.5921
898.293	10.9562
901.186	9.12675
904.078	7.05547
906.971	4.15976
909.864	1.78789
912.756	1.62088
915.649	0.150726
918.542	1.58794
921.434	1.18901
924.327	1.30974
927.22	0.214127
930.113	0.511475
933.005	0.530655
935.898	0.540863
938.791	0.440384
941.683	0.574997
944.576	1.27889
947.469	1.13477
950.361	1.78726
953.254	3.08374
956.147	4.9564
959.04	7.26464
961.932	8.10435
964.825	8.88594
967.718	9.1859
970.61	10.5652
973.503	8.98712
976.396	11.1604
979.288	13.0777
982.181	12.8019
985.074	11.2034
987.967	11.1891
990.859	10.722
993.752	7.88855
996.645	9.54958
999.537	10.1159
1002.43	11.4976
1005.32	12.8995
1008.22	14.5544
1011.11	14.2972
1014	16.1347
1016.89	15.4795
1019.79	15.5109
1022.68	14.9164
1025.57	12.164
1028.46	11.6991
1031.36	11.5787
1034.25	11.147
1037.14	12.5691
1040.04	11.6809
1042.93	10.6446
1045.82	11.1538
1048.71	10.0783
1051.61	8.14586
1054.5	7.66672
1057.39	6.75066
1060.28	5.38702
1063.18	3.1143
1066.07	3.98829
1068.96	2.41376
1071.86	1.1018
1074.75	0.505692
1077.64	1.29337
1080.53	0.247887
1083.43	1.97739
1086.32	1.5484
1089.21	1.035
1092.1	1.40517
1095	1.005
1097.89	1.60875
1100.78	0.66951
1103.67	0.910721
1106.57	0.643127
1109.46	1.23438
1112.35	1.79179
1115.24	1.98005
1118.14	1.89783
1121.03	0.774796
1123.92	1.20549
1126.82	1.26799
1129.71	0.729172
1132.6	0.587601
1135.49	1.13174
1138.39	0.011063
1141.28	1.12598
1144.17	0.28817
1147.07	0.494987
1149.96	0.497124
1152.85	0.279228
1155.74	0.345169
1158.64	1.28406
1161.53	0.622459
1164.42	0.898506
1167.31	0.215599
1170.21	2.45972
1173.1	1.69224
1175.99	2.17635
1178.88	2.61617
1181.78	3.87322
1184.67	2.9789
1187.56	3.45299
1190.46	2.24717
1193.35	3.9032
1196.24	3.1153
1199.13	4.10261
1202.03	3.20865
1204.92	3.90937
1207.81	2.54646
1210.7	2.55207
1213.6	3.02316
1216.49	3.53992
1219.38	3.18311
1222.28	3.61147
1225.17	1.3578
1228.06	2.349
1230.95	2.09356
1233.85	2.65911
1236.74	2.73405
1239.63	1.81108
1242.52	1.34761
1245.42	2.64925
1248.31	0.829472
1251.2	1.55105
1254.1	1.06529
1256.99	1.18478
1259.88	1.43104
1262.77	1.04323
1265.67	1.34766
1268.56	0.773663
1271.45	0.355568
1274.34	1.45676
1277.24	1.49326
1280.13	0.540253
1283.02	2.04749
1285.91	0.475647
1288.81	0.593296
1291.7	0.855679
1294.59	1.41339
1297.49	0.404552
1300.38	0.539215
