Measurement: Raman, 785 nm, unoriented, Raman Data Processed
Mineral: Howieite
Rruff sample: R061009
Ideal chemistry: Na(Fe^2+^,Fe^3+^,Al,Mg)_12_(Si_6_O_17_)_2_(O,OH)_10_
Locality: Quarry on north side of U.S. 101, 5 miles south of Laytonville, Mendocino County, California, USA
Source: Michael Scott
Description: Dark brown bladed crystals in plumose aggregates
Raman shift (cm-1)	intensity
150.937	0
153.83	50.1299
156.722	30.7429
159.615	7.07056
162.508	93.8706
165.4	186.167
168.293	142.63
171.186	104.698
174.078	46.7884
176.971	56.8728
179.864	23.9369
182.757	54.1378
185.649	42.8053
188.542	5.59863
191.435	40.9889
194.327	87.0503
197.22	75.0282
200.113	75.4171
203.006	51.8071
205.898	15.413
208.791	12.0509
211.684	7.10559
214.576	9.31213
217.469	33.1797
220.362	24.5538
223.254	68.3066
226.147	51.7369
229.04	24.5342
231.933	35.0604
234.825	98.6071
237.718	118.68
240.611	161.07
243.503	170.916
246.396	190.732
249.289	239.345
252.181	247.834
255.074	191.609
257.967	181.588
260.86	133.929
263.752	123.018
266.645	112.022
269.538	91.4868
272.43	54.0096
275.323	21.1887
278.216	59.3663
281.108	47.6714
284.001	62.2483
286.894	47.4077
289.786	66.2009
292.679	155.178
295.572	233.212
298.465	327.113
301.357	376.36
304.25	413.037
307.143	326.278
310.035	279.231
312.928	205.013
315.821	143.494
318.714	30.6671
321.606	20.5398
324.499	7.46436
327.392	31.9523
330.284	19.4631
333.177	15.0321
336.07	25.9227
338.962	80.8687
341.855	91.7712
344.748	202.552
347.64	216.332
350.533	183.608
353.426	180.596
356.319	131.294
359.211	169.069
362.104	64.8435
364.997	81.4655
367.889	73.6693
370.782	109.573
373.675	142.499
376.567	111.813
379.46	100.839
382.353	1.45886
385.246	19.2662
388.138	0.254272
391.031	19.0098
393.924	79.2903
396.816	161.587
399.709	306.622
402.602	258.55
405.495	344.283
408.387	353.55
411.28	399.49
414.173	400.357
417.065	368.226
419.958	409.597
422.851	467.847
425.743	490.894
428.636	511.43
431.529	541.994
434.421	565.904
437.314	551.281
440.207	611.938
443.1	655.782
445.992	760.257
448.885	801.12
451.778	779.723
454.671	641.103
457.563	544.575
460.456	469.245
463.349	345.581
466.241	224.574
469.134	215.452
472.027	130.42
474.919	93.4302
477.812	114.334
480.705	125.157
483.598	106.853
486.49	126.976
489.383	221.791
492.276	262.338
495.168	263.476
498.061	220.075
500.954	186.076
503.846	184.805
506.739	171.245
509.632	107.406
512.524	31.9607
515.417	53.0038
518.31	46.0483
521.203	5.50378
524.095	38.1599
526.988	16.8568
529.881	14.2128
532.773	5.72217
535.666	20.1361
538.559	101.806
541.452	114.07
544.344	93.4441
547.237	109.12
550.13	146.04
553.022	163.21
555.915	209.332
558.808	210.622
561.7	203.713
564.593	180.457
567.486	149.48
570.379	98.8497
573.271	89.4939
576.164	56.0767
579.057	31.8127
581.949	10.9783
584.842	26.796
587.735	5.42493
590.627	6.01965
593.52	8.1947
596.413	14.5337
599.306	17.8959
602.198	31.3844
605.091	27.7596
607.984	46.2582
610.876	43.3004
613.769	50.9259
616.662	78.0425
619.554	62.7947
622.447	123.517
625.34	87.9114
628.232	57.6893
631.125	64.9006
634.018	39.7291
636.911	45.2645
639.803	80.6728
642.696	69.6477
645.589	52.4763
648.481	95.5807
651.374	167.621
654.267	216.163
657.159	357.496
660.052	554.608
662.945	800.066
665.838	1036.48
668.73	1013.89
671.623	761.151
674.516	524.65
677.408	336.593
680.301	170
683.194	101.99
686.087	83.7712
688.979	30.0614
691.872	113.712
694.765	86.6303
697.657	85.2585
700.55	146.698
703.443	177.337
706.335	187.084
709.228	187.289
712.121	167.121
715.014	190.078
717.906	183.542
720.799	162.918
723.692	150.374
726.584	98.9452
729.477	18.1016
732.37	12.7335
735.262	15.4352
738.155	9.2124
741.048	4.48962
743.941	11.153
746.833	3.43811
749.726	0.02771
752.619	5.23035
755.511	10.4546
758.404	6.38635
761.297	7.36255
764.189	21.1108
767.082	3.17761
769.975	12.2926
772.867	23.2996
775.76	17.1515
778.653	20.0553
781.546	23.9077
784.438	46.2176
787.331	40.9658
790.224	101.248
793.116	60.3431
796.009	49.5698
798.902	63.1529
801.794	17.9788
804.687	70.7906
807.58	49.0416
810.473	64.3774
813.365	70.963
816.258	51.6586
819.151	62.0779
822.043	64.1291
824.936	54.6101
827.829	63.349
830.722	29.5456
833.614	30.7252
836.507	20.7054
839.4	55.8844
842.292	32.8792
845.185	29.4441
848.078	26.9845
850.971	24.8895
853.863	27.809
856.756	25.0891
859.649	41.5862
862.541	62.6497
865.434	59.0447
868.327	72.5198
871.219	52.6341
874.112	40.776
877.005	37.7441
879.898	16.0789
882.79	75.7506
885.683	94.7772
888.576	32.14
891.468	87.0768
894.361	59.7549
897.254	12.6304
900.146	21.0056
903.039	33.6028
905.932	42.9227
908.824	20.9202
911.717	5.09363
914.61	18.5656
917.503	9.64929
920.395	14.1946
923.288	15.7784
926.181	5.82263
929.073	44.1265
931.966	53.2396
934.859	17.3908
937.751	1.66626
940.644	22.7351
943.537	33.9806
946.43	34.9734
949.322	19.59
952.215	89.6285
955.108	60.295
958	78.7529
960.893	70.9606
963.786	68.7892
966.678	85.2313
969.571	108.679
972.464	96.6462
975.357	109.553
978.249	126.872
981.142	123.667
984.035	116.583
986.927	187.704
989.82	167.045
992.713	138.869
995.606	232.013
998.498	266.106
1001.39	316.272
1004.28	395.514
1007.18	421.456
1010.07	421.268
1012.96	385.32
1015.85	370.342
1018.75	343.288
1021.64	295.88
1024.53	189.862
1027.42	127.672
1030.32	141.397
1033.21	144.024
1036.1	137.319
1039	138.506
1041.89	130.278
1044.78	123.206
1047.67	139.788
1050.57	88.059
1053.46	72.9957
1056.35	95.4739
1059.24	29.5004
1062.14	25.0701
1065.03	28.6206
1067.92	37.2918
1070.82	25.8251
1073.71	0.788574
1076.6	24.8212
1079.49	0.091003
1082.39	11.4423
1085.28	48.3323
1088.17	33.191
1091.07	44.1988
1093.96	4.49872
1096.85	0.729736
1099.74	19.4995
1102.63	9.34851
1105.53	1.76929
1108.42	37.0638
1111.31	1.49768
1114.21	35.9832
1117.1	24.7322
1119.99	27.3507
1122.88	17.5711
1125.78	20.806
1128.67	21.433
1131.56	34.7264
1134.45	51.1959
1137.35	25.2614
1140.24	55.127
1143.13	37.3715
1146.03	17.7623
1148.92	23.7784
1151.81	44.9566
1154.7	3.40631
1157.6	45.3993
1160.49	49.3133
1163.38	16.3445
1166.28	30.1016
1169.17	49.6068
1172.06	70.74
1174.95	71.5927
1177.85	48.0436
1180.74	42.4427
1183.63	30.4855
1186.52	24.3804
1189.42	61.9952
1192.31	44.5302
1195.2	38.8183
1198.09	70.8401
1200.99	66.3963
1203.88	75.8148
1206.77	22.645
1209.66	46.0181
1212.56	61.9787
1215.45	56.8613
1218.34	60.0007
1221.24	77.1519
1224.13	52.3821
1227.02	22.7858
1229.91	44.3451
1232.81	84.676
1235.7	29.4529
1238.59	32.3338
1241.48	17.4305
1244.38	40.1971
1247.27	27.3598
1250.16	12.5219
1253.06	12.4359
