Measurement: Raman, 780 nm, unoriented, Raman Data Processed
Mineral: Howlite
Rruff sample: R110150
Ideal chemistry: Ca_2_B_5_SiO_9_(OH)_5_
Locality: Potash Corporation of Saskatchewan mine, Penobsquis, Kings County, New Brunswick, Canada
Source: Donald M Doell and Brian Roulston
Description: Colorless bladed crystals, extracted by dissolving the matrix of sylvite/halite, associated with strontioginorite R110149, volkovskite R110151, ruitenbergite R110152, congolite R110153, and hilgardite
Raman shift (cm-1)	intensity
115.709	1.86243
119.084	2.10788
122.459	42.3386
125.834	26.8823
129.209	56.4797
132.583	56.12
135.958	108.656
139.333	110.286
142.708	19.9904
146.083	11.8533
149.458	3.72729
152.832	3.58066
156.207	2.93131
159.582	3.38165
162.957	1.19028
166.332	4.45859
169.706	18.809
173.081	30.8109
176.456	23.8139
179.831	26.3794
183.206	33.2812
186.581	43.7772
189.955	53.7731
193.33	87.3171
196.705	98.3776
200.08	59.1563
203.455	21.273
206.829	16.7841
210.204	20.1296
213.579	23.0925
216.954	35.5885
220.329	29.2105
223.703	15.921
227.078	16.8776
230.453	12.6587
233.828	8.56033
237.203	5.28503
240.578	2.64862
243.952	20.7165
247.327	34.0757
250.702	33.187
254.077	25.0254
257.452	17.9626
260.827	11.2634
264.201	9.68167
267.576	13.5405
270.951	10.6455
274.326	14.0879
277.701	15.1715
281.075	20.2227
284.45	27.9611
287.825	39.4224
291.2	59.2541
294.575	57.4285
297.95	61.6274
301.324	83.6595
304.699	90.4707
308.074	64.8734
311.449	35.0354
314.824	16.0674
318.198	4.98224
321.573	4.02039
324.948	0.704407
328.323	3.07321
331.698	2.2464
335.072	0.770081
338.447	3.62836
341.822	2.84497
345.197	9.92493
348.572	11.903
351.947	15.9994
355.321	20.5766
358.696	31.5578
362.071	44.9177
365.446	48.7587
368.821	46.0846
372.195	33.9544
375.57	18.1397
378.945	13.9931
382.32	13.9537
385.695	18.8124
389.07	22.2357
392.444	14.9668
395.819	18.4242
399.194	16.8192
402.569	25.271
405.944	28.9119
409.318	38.4377
412.693	33.7043
416.068	15.4156
419.443	8.24234
422.818	5.13892
426.192	7.19754
429.567	3.31815
432.942	3.32889
436.317	5.39999
439.692	1.31497
443.067	1.59317
446.441	8.83136
449.816	1.68808
453.191	6.67343
456.566	1.08368
459.941	9.57165
463.315	10.3451
466.69	21.2314
470.065	32.7141
473.44	24.5024
476.815	10.6567
480.19	8.39215
483.564	2.28952
486.939	1.00308
490.314	2.7995
493.689	2.60406
497.064	2.36688
500.438	1.17398
503.813	2.5383
507.188	5.09286
510.563	7.99997
513.938	4.89017
517.313	0.832306
520.687	5.38684
524.062	8.92221
527.437	16.7114
530.812	29.3496
534.187	53.0799
537.562	77.9291
540.936	96.7748
544.311	102.799
547.686	73.0031
551.061	39.3916
554.436	23.462
557.81	15.3584
561.185	14.8352
564.56	2.98712
567.935	3.28558
571.31	2.95523
574.684	12.9414
578.059	15.6829
581.434	16.1213
584.809	22.0721
588.184	31.2807
591.558	34.8332
594.933	38.2942
598.308	52.6257
601.683	46.8528
605.058	37.4186
608.433	27.3889
611.807	20.0634
615.182	0.499329
618.557	4.36267
621.932	4.83475
625.307	0.567261
628.682	1.50967
632.056	7.26904
635.431	9.38431
638.806	6.62222
642.181	3.38385
645.556	1.06912
648.93	13.4048
652.305	21.3451
655.68	35.4452
659.055	56.5347
662.43	67.3616
665.804	84.2918
669.179	89.8751
672.554	83.2105
675.929	70.164
679.304	52.3276
682.679	51.152
686.053	50.9606
689.428	47.3179
692.803	24.2405
696.178	1.96287
699.553	3.07568
702.928	1.43131
706.302	0.98999
709.677	4.90825
713.052	0.212784
716.427	2.10969
719.802	6.11269
723.176	5.42569
726.551	11.2315
729.926	23.0081
733.301	36.2043
736.676	41.314
740.051	27.3223
743.425	12.1223
746.8	7.43202
750.175	3.85338
753.55	1.0237
756.925	0.579773
760.299	2.82712
763.674	0.013382
767.049	0.414474
770.424	0.77597
773.799	1.55959
777.173	1.36675
780.548	6.60745
783.923	4.03439
787.298	1.18514
790.673	7.48491
794.048	4.98636
797.422	4.85678
800.797	7.2007
804.172	7.42627
807.547	7.53168
810.922	11.8293
814.296	9.65886
817.671	11.4908
821.046	18.9908
824.421	18.7713
827.796	11.3884
831.17	11.7584
834.545	14.6609
837.92	17.8394
841.295	15.5872
844.67	13.9984
848.045	12.1688
851.419	13.6514
854.794	10.0157
858.169	17.1006
861.544	14.4492
864.919	12.2786
868.293	12.0082
871.668	13.7753
875.043	9.89697
878.418	7.15385
881.793	10.6544
885.168	7.13728
888.542	11.262
891.917	11.5462
895.292	8.05473
898.667	8.66332
902.042	5.05003
905.417	6.12437
908.791	1.11856
912.166	2.07909
915.541	0.90303
918.916	3.35698
922.291	0.994843
925.665	2.1859
929.04	0.43306
932.415	0.845383
935.79	1.37633
939.165	1.20754
942.539	0.796982
945.914	0.320053
949.289	5.07484
952.664	5.54649
956.039	7.12169
959.414	4.51685
962.788	7.55824
966.163	6.40897
969.538	8.74794
972.913	7.48173
976.288	9.07646
979.663	8.22105
983.037	9.33557
986.412	11.5824
989.787	13.2475
993.162	8.36203
996.537	7.11444
999.911	5.4409
1003.29	4.81252
1006.66	5.03831
1010.04	5.71913
1013.41	7.28584
1016.78	7.16733
1020.16	5.74777
1023.53	6.32666
1026.91	2.79442
1030.29	4.90424
1033.66	2.13132
1037.03	4.34146
1040.41	5.07124
1043.78	5.7804
1047.16	4.57764
1050.53	0.944977
1053.91	5.18242
1057.28	0.329727
1060.66	4.46527
1064.03	6.16122
1067.41	8.58691
1070.78	1.35841
1074.16	1.55222
1077.53	3.2489
1080.91	1.88908
1084.28	5.24025
1087.66	3.07503
1091.03	0.213867
1094.41	2.6122
1097.78	5.46307
1101.16	1.88248
1104.53	0.03891
1107.91	6.06923
1111.28	2.75278
1114.65	0.509705
1118.03	2.00227
1121.4	2.2049
1124.78	2.43675
1128.15	1.90334
1131.53	4.21245
1134.9	2.64626
1138.28	4.65364
1141.65	5.08617
1145.03	0.67247
1148.4	2.58423
1151.78	2.0524
1155.15	6.31633
1158.53	0.004807
1161.9	1.15015
1165.28	6.34731
1168.65	6.0894
1172.03	1.38344
1175.4	3.55335
1178.78	5.48642
1182.15	7.71608
1185.53	7.88847
1188.9	1.66302
1192.28	9.01587
1195.65	12.4852
1199.03	7.569
1202.4	3.71848
1205.78	8.56404
1209.15	10.045
1212.53	7.58934
1215.9	6.74484
1219.27	12.0624
1222.65	7.16707
1226.02	5.15698
1229.4	3.79889
1232.77	2.58205
1236.15	5.70363
1239.52	6.59102
1242.9	5.18408
1246.27	7.30279
1249.65	1.63731
1253.02	6.18315
1256.4	7.03368
1259.77	3.24034
1263.15	2.87907
1266.52	6.7334
1269.9	2.70283
1273.27	6.44919
1276.65	0.873291
1280.02	6.25413
1283.4	6.30281
