Measurement: Raman, 785 nm, unoriented, Raman Data Processed
Mineral: Hulsite
Rruff sample: R070537
Ideal chemistry: Fe^2+^_2_Fe^3+^O_2_(BO_3_)
Locality: Brooks Mountain, Seward Peninsula, Nome Borough, Alaska, USA
Source: James Shigley
Description: Submetallic black platy crystals
Raman shift (cm-1)	intensity
148.88	0
151.773	89.6511
154.666	46.2815
157.559	1.40039
160.451	160.988
163.344	99.9873
166.237	302.298
169.129	381.801
172.022	621.018
174.915	832.179
177.807	970.184
180.7	1216.34
183.593	1518.14
186.486	1723.03
189.378	1985.62
192.271	2126.88
195.164	2239.12
198.056	2267.2
200.949	2360.99
203.842	2387.77
206.734	2373.78
209.627	2319.97
212.52	2111.81
215.412	1928.72
218.305	1732.76
221.198	1501.52
224.091	1230.68
226.983	974.501
229.876	818.315
232.769	634.303
235.661	594.717
238.554	565.04
241.447	474.169
244.339	383.734
247.232	286.603
250.125	173.173
253.018	121.944
255.91	157.677
258.803	138.305
261.696	96.6948
264.588	45.9582
267.481	81.6677
270.374	23.1389
273.267	4.49487
276.159	5.91797
279.052	3.56397
281.945	2.46558
284.837	16.1982
287.73	23.6182
290.623	34.1899
293.515	7.4707
296.408	16.6216
299.301	24.2971
302.193	14.622
305.086	5.38892
307.979	40.1191
310.872	31.6207
313.764	11.6705
316.657	7.2074
319.55	6.53723
322.442	49.2723
325.335	1.45618
328.228	43.8954
331.12	43.544
334.013	28.1902
336.906	41.3123
339.799	43.0906
342.691	20.3391
345.584	41.5674
348.477	27.73
351.369	26.1909
354.262	33.7302
357.155	47.9762
360.048	2.43518
362.94	15.6017
365.833	40.1748
368.726	44.6346
371.618	20.995
374.511	51.8268
377.404	54.1556
380.296	14.6924
383.189	39.192
386.082	32.9514
388.974	17.5663
391.867	6.87915
394.76	7.01135
397.653	18.0046
400.545	17.7472
403.438	33.7329
406.331	16.8702
409.223	18.6855
412.116	5.14233
415.009	42.6517
417.902	24.3127
420.794	29.098
423.687	41.1698
426.58	38.1705
429.472	72.0221
432.365	36.9919
435.258	64.9983
438.151	93.0875
441.043	83.5378
443.936	134.379
446.829	118.576
449.721	119.888
452.614	88.4713
455.507	84.1055
458.399	71.3992
461.292	54.0582
464.185	21.8779
467.077	23.1304
469.97	27.0701
472.863	10.1552
475.756	6.54993
478.648	14.6156
481.541	29.5601
484.434	28.2352
487.326	39.2769
490.219	56.7501
493.112	57.2932
496.005	66.0652
498.897	93.1611
501.79	71.5682
504.683	97.4574
507.575	60.9906
510.468	59.9995
513.361	28.2777
516.253	21.7512
519.146	19.2911
522.039	15.9695
524.932	3.68689
527.824	10.4612
530.717	17.0001
533.61	16.6493
536.502	3.53552
539.395	18.7141
542.288	10.1878
545.18	7.69385
548.073	4.07709
550.966	6.8797
553.859	14.5099
556.751	10.8561
559.644	7.69238
562.537	2.07074
565.429	3.83758
568.322	9.85065
571.215	9.60632
574.107	18.7905
577	12.5555
579.893	34.0775
582.785	20.3198
585.678	10.1587
588.571	36.0822
591.464	6.46088
594.356	38.444
597.249	21.0543
600.142	37.6169
603.034	36.2662
605.927	34.6082
608.82	31.0351
611.712	8.50171
614.605	33.7671
617.498	26.7753
620.391	37.2606
623.283	37.6654
626.176	30.8428
629.069	41.4164
631.961	41.8046
634.854	33.4811
637.747	51.2276
640.639	39.3016
643.532	30.0303
646.425	58.0153
649.318	29.755
652.21	32.1978
655.103	38.4711
657.996	33.3872
660.888	42.2126
663.781	17.269
666.674	29.9681
669.567	18.0714
672.459	17.5661
675.352	21.3234
678.245	24.3038
681.137	14.3492
684.03	31.158
686.923	30.8665
689.815	1.57831
692.708	27.9786
695.601	15.5701
698.494	7.31213
701.386	4.39362
704.279	1.82929
707.172	2.67322
710.064	26.853
712.957	15.2494
715.85	23.6765
718.742	10.5781
721.635	30.2882
724.528	19.2327
727.42	16.9119
730.313	21.2869
733.206	9.70612
736.099	11.196
738.991	22.2565
741.884	16.6779
744.777	6.43597
747.669	9.28857
750.562	20.9214
753.455	34.9295
756.347	4.88947
759.24	26.5646
762.133	17.6087
765.026	37.2777
767.918	17.2518
770.811	6.00574
773.704	0.96106
776.596	10.1873
779.489	13.004
782.382	15.614
785.274	13.2919
788.167	5.3974
791.06	4.57019
793.953	25.6432
796.845	10.4878
799.738	21.4734
802.631	23.1736
805.523	0.368774
808.416	21.7305
811.309	16.6574
814.202	30.9055
817.094	34.0776
819.987	26.7258
822.88	17.2611
825.772	1.34497
828.665	2.57019
831.558	16.2656
834.45	9.5896
837.343	23.6788
840.236	4.86829
843.129	21.2349
846.021	7.14746
848.914	2.86835
851.807	12.0269
854.699	7.23456
857.592	2.76776
860.485	8.00211
863.377	38.6021
866.27	18.4647
869.163	8.01675
872.056	25.5754
874.948	14.9999
877.841	15.0865
880.734	2.52048
883.626	5.85492
886.519	7.23428
889.412	6.63519
892.304	7.79681
895.197	5.88809
898.09	5.38361
900.982	10.374
903.875	24.5519
906.768	3.09683
909.661	24.2589
912.553	20.1965
915.446	20.5331
918.339	18.7486
921.231	1.91031
924.124	13.2011
927.017	22.4404
929.91	31.9009
932.802	8.71622
935.695	8.80975
938.588	9.49838
941.48	25.5859
944.373	30.3942
947.266	8.63101
950.159	24.5081
953.051	5.06448
955.944	4.01892
958.837	27.1054
961.729	8.77954
964.622	12.041
967.515	16.1901
970.407	10.6809
973.3	17.7139
976.193	2.71851
979.086	22.1931
981.978	24.2505
984.871	6.07315
987.764	22.7107
990.656	4.42831
993.549	9.20312
996.442	13.498
999.334	21.4515
1002.23	0.337341
1005.12	6.06662
1008.01	20.9593
1010.9	11.816
1013.8	17.8667
1016.69	26.856
1019.58	6.83563
1022.48	15.3662
1025.37	2.07886
1028.26	8.46854
1031.15	10.9349
1034.05	1.50561
1036.94	23.7351
1039.83	3.29111
1042.72	4.70114
1045.62	27.601
1048.51	15.382
1051.4	18.9774
1054.3	14.3475
1057.19	17.0579
1060.08	12.9439
1062.97	23.2336
1065.87	21.3132
1068.76	4.75311
1071.65	22.9426
1074.55	15.3475
1077.44	9.79532
1080.33	5.9191
1083.22	14.4538
1086.12	23.4717
1089.01	5.16824
1091.9	15.9806
1094.79	19.4925
1097.69	7.90454
1100.58	15.239
1103.47	30.0035
1106.36	30.1099
1109.26	28.5473
1112.15	14.5434
1115.04	17.4437
1117.93	25.8664
1120.83	27.0207
1123.72	18.3041
1126.61	21.9924
1129.51	13.6765
1132.4	4.6366
1135.29	11.3728
1138.18	12.7844
1141.08	17.0482
1143.97	17.7396
1146.86	19.2647
1149.76	14.2416
1152.65	25.8478
1155.54	2.28213
1158.43	2.38095
1161.33	20.0089
1164.22	17.165
1167.11	10.5422
1170	14.7296
1172.9	21.492
1175.79	40.9429
1178.68	24.9831
1181.58	15.8065
1184.47	25.2712
1187.36	16.7099
1190.25	14.4444
1193.14	13.9751
1196.04	18.1226
1198.93	16.1544
1201.82	25.3341
1204.72	17.0747
1207.61	22.5198
1210.5	4.18707
1213.39	19.2297
1216.29	12.9411
1219.18	13.8011
1222.07	22.3846
1224.96	9.52911
1227.86	9.26263
1230.75	11.5118
1233.64	0.130859
1236.54	8.4462
1239.43	20.998
1242.32	24.228
1245.21	18.9064
1248.11	25.0192
1251	18.1673
1253.89	17.601
1256.79	1.89624
1259.68	0.128296
1262.57	0
