Measurement: Raman, 532 nm, unoriented, Raman Data Processed
Mineral: Hulsite
Rruff sample: R070453
Ideal chemistry: Fe^2+^_2_Fe^3+^O_2_(BO_3_)
Locality: Titovskoye B deposit, Tas-Khayakhtakh Range, Polar Yakutia, Saha Republic (Sakha Republic; Yakutia), Eastern-Siberian Region, Russia
Source: Michael Scott
Description: Aggregate of sub-metallic black platy material
Raman shift (cm-1)	intensity
162.94	0
165.833	1.91302
168.725	4.64853
171.618	22.5251
174.511	16.1118
177.404	34.4599
180.296	51.9565
183.189	56.7486
186.082	107.431
188.974	150.804
191.867	191.032
194.76	226.916
197.652	301.694
200.545	306.327
203.438	330.465
206.331	380.99
209.223	450.002
212.116	462.334
215.009	377.03
217.901	312.686
220.794	334.025
223.687	360.481
226.579	341.128
229.472	203.005
232.365	119.572
235.257	95.8611
238.15	78.9167
241.043	64.7575
243.936	59.2683
246.828	34.2766
249.721	10.3085
252.614	3.95746
255.506	5.09943
258.399	8.86188
261.292	1.16925
264.185	13.5493
267.077	12.2737
269.97	6.86865
272.863	1.87567
275.755	1.55423
278.648	8.12994
281.541	7.62079
284.433	1.96079
287.326	15.9569
290.219	12.0089
293.111	10.182
296.004	45.2508
298.897	43.1558
301.79	50.5709
304.682	66.9905
307.575	68.1323
310.468	65.0094
313.36	45.9431
316.253	43.2231
319.146	21.1365
322.038	38.7081
324.931	14.705
327.824	19.3381
330.717	28.8985
333.609	13.8269
336.502	14.9077
339.395	0.977386
342.287	6.0209
345.18	13.366
348.073	10.6989
350.966	5.43323
353.858	4.5715
356.751	18.5114
359.644	10.3161
362.536	5.71527
365.429	17.8643
368.322	12.3236
371.214	31.1985
374.107	60.4561
377	88.4485
379.892	88.551
382.785	130.051
385.678	141.367
388.571	149.55
391.463	138.438
394.356	112.623
397.249	90.4984
400.142	58.2873
403.034	59.5372
405.927	13.6927
408.82	2.95731
411.712	9.04321
414.605	4.11591
417.498	12.8437
420.39	14.0588
423.283	4.50449
426.176	5.02707
429.068	19.1781
431.961	14.8116
434.854	8.22372
437.747	43.2445
440.639	44.9253
443.532	56.0717
446.425	85.4771
449.317	91.9263
452.21	89.9719
455.103	105.161
457.995	71.9719
460.888	78.764
463.781	56.3182
466.674	53.3576
469.566	24.0135
472.459	5.59747
475.352	15.7124
478.244	3.84488
481.137	12.2294
484.03	7.17615
486.923	31.3613
489.815	35.1335
492.708	86.3762
495.601	98.276
498.493	114.989
501.386	138.625
504.279	156.436
507.171	131.359
510.064	123.825
512.957	120.349
515.85	84.1247
518.742	71.8243
521.635	61.2172
524.528	46.3604
527.42	39.1852
530.313	22.964
533.206	15.9913
536.098	21.342
538.991	27.1934
541.884	14.4459
544.777	36.4036
547.669	12.3155
550.562	20.251
553.455	1.24747
556.347	22.2746
559.24	27.6561
562.133	7.0209
565.025	19.1494
567.918	9.63922
570.811	9.31818
573.704	6.36597
576.596	6.36127
579.489	16.8228
582.382	7.08682
585.274	21.9451
588.167	9.79031
591.06	24.1712
593.952	2.64572
596.845	18.482
599.738	35.2426
602.631	12.5553
605.523	2.66684
608.416	19.0874
611.309	13.9663
614.201	0.681061
617.094	8.44385
619.987	11.2548
622.88	32.0667
625.772	49.4166
628.665	63.3106
631.558	58.2686
634.45	80.0796
637.343	83.5561
640.236	98.9896
643.128	67.9799
646.021	83.3315
648.914	51.0029
651.807	39.4567
654.699	26.1783
657.592	33.735
660.485	28.5472
663.377	25.5211
666.27	38.2872
669.163	27.2511
672.055	27.9899
674.948	37.8366
677.841	8.19946
680.734	21.0036
683.626	25.478
686.519	17.2674
689.412	4.83737
692.304	2.82471
695.197	30.082
698.09	7.67917
700.982	16.5334
703.875	2.37402
706.768	15.2432
709.66	20.0396
712.553	19.8836
715.446	21.8356
718.339	12.059
721.231	17.5744
724.124	1.10388
727.017	5.883
729.909	18.7189
732.802	24.4802
735.695	11.3699
738.587	4.90979
741.48	6.68491
744.373	13.7523
747.266	38.9804
750.158	15.2786
753.051	8.41208
755.944	30.1826
758.836	19.3628
761.729	37.428
764.622	18.2656
767.514	21.562
770.407	0.019196
773.3	8.47897
776.193	7.88721
779.085	25.3879
781.978	19.9855
784.871	3.90939
787.763	8.17426
790.656	14.0182
793.549	32.8248
796.442	28.1923
799.334	47.846
802.227	36.1287
805.12	46.5466
808.012	27.1443
810.905	31.34
813.798	11.0074
816.69	20.556
819.583	13.4136
822.476	20.202
825.369	25.8372
828.261	20.8874
831.154	22.8971
834.047	29.9443
836.939	11.1862
839.832	20.7697
842.725	34.7773
845.617	15.6783
848.51	47.3417
851.403	11.8828
854.296	39.5242
857.188	9.39368
860.081	28.6711
862.974	18.5808
865.866	23.8925
868.759	16.3733
871.652	11.3832
874.544	18.2654
877.437	10.6966
880.33	5.98636
883.223	26.7577
886.115	18.1595
889.008	18.0352
891.901	10.137
894.793	14.2488
897.686	12.9148
900.579	2.25513
903.471	1.26379
906.364	12.6713
909.257	3.97052
912.15	21.3485
915.042	18.0878
917.935	31.6738
920.828	24.1974
923.72	21.4566
926.613	25.3183
929.506	2.40094
932.399	24.8599
935.291	6.87405
938.184	27.0756
941.077	15.7884
943.969	12.8533
946.862	16.2126
949.755	1.0249
952.647	27.0517
955.54	11.1633
958.433	10.0487
961.326	27.0725
964.218	32.0582
967.111	10.8984
970.004	8.15515
972.896	23.7523
975.789	15.4714
978.682	5.22076
981.574	19.9118
984.467	14.0691
987.36	17.1881
990.253	18.3026
993.145	35.9976
996.038	37.007
998.931	35.0322
1001.82	11.109
1004.72	34.4262
1007.61	36.7963
1010.5	9.81552
1013.39	20.7931
1016.29	13.0846
1019.18	10.0719
1022.07	29.7139
1024.96	9.48337
1027.86	37.99
1030.75	20.8854
1033.64	12.76
1036.54	33.1288
1039.43	22.3943
1042.32	37.614
1045.21	36.4344
1048.11	28.4349
1051	17.4468
1053.89	22.5994
1056.79	6.3707
1059.68	7.62906
1062.57	29.005
1065.46	19.06
1068.36	27.8706
1071.25	32.1204
1074.14	31.1081
1077.03	36.2259
1079.93	26.621
1082.82	18.4807
1085.71	18.5561
1088.6	20.8583
1091.5	21.0499
1094.39	34.0016
1097.28	48.6992
1100.17	27.9295
1103.07	28.7674
1105.96	21.8171
1108.85	38.2793
1111.75	20.1801
1114.64	30.1821
1117.53	26.6194
1120.42	14.919
1123.32	34.9825
1126.21	6.48416
1129.1	37.7579
1131.99	23.7648
1134.89	4.39816
1137.78	14.9231
1140.67	18.8137
1143.57	32.1671
1146.46	35.7968
1149.35	0.975403
1152.24	24.3644
1155.14	44.1094
1158.03	39.5962
1160.92	42.4122
1163.82	15.3146
1166.71	13.7589
1169.6	20.6616
1172.49	18.8019
1175.38	22.9547
1178.28	8.58817
1181.17	19.1463
1184.06	36.5433
1186.96	34.1675
1189.85	9.47147
1192.74	29.0315
1195.63	40.3376
1198.53	38.6906
1201.42	11.9444
1204.31	32.584
1207.2	20.5445
1210.1	4.63077
1212.99	3.94067
1215.88	26.276
1218.78	22.8993
1221.67	23.668
1224.56	35.1973
1227.45	47.9029
1230.35	23.4467
1233.24	8.35468
1236.13	1.75296
1239.03	38.1495
1241.92	23.4423
1244.81	34.6669
1247.7	22.3567
1250.6	6.58456
1253.49	27.3563
1256.38	8.2258
1259.27	21.672
1262.17	26.421
1265.06	22.516
1267.95	5.32001
1270.85	35.7727
1273.74	33.9121
1276.63	30.4937
1279.52	34.9813
1282.41	14.8014
1285.31	6.68076
1288.2	1.93918
1291.09	10.1344
1293.99	15.8459
1296.88	1.23151
1299.77	25.1835
1302.66	11.9535
1305.56	11.5756
1308.45	9.12329
1311.34	30.9278
1314.23	0.704559
1317.13	6.47128
