Measurement: Raman, 532 nm, unoriented, Raman Data Processed
Mineral: Hulsite
Rruff sample: R070537
Ideal chemistry: Fe^2+^_2_Fe^3+^O_2_(BO_3_)
Locality: Brooks Mountain, Seward Peninsula, Nome Borough, Alaska, USA
Source: James Shigley
Description: Submetallic black platy crystals
Raman shift (cm-1)	intensity
157.869	0
160.762	10.3645
163.655	11.3099
166.547	4.7831
169.44	22.5601
172.333	12.7788
175.225	42.2246
178.118	49.2716
181.011	69.8446
183.904	77.3422
186.796	89.5787
189.689	117.798
192.582	155.642
195.474	173.026
198.367	184.44
201.26	192.811
204.153	218.541
207.045	263.166
209.938	257.219
212.831	234.809
215.723	231.157
218.616	219.935
221.509	226.796
224.401	194.604
227.294	109.68
230.187	58.0598
233.079	29.7676
235.972	47.3293
238.865	30.7617
241.758	20.8389
244.65	20.8544
247.543	2.35767
250.436	0.669708
253.328	5.16063
256.221	5.46318
259.114	8.29599
262.007	4.58572
264.899	3.38239
267.792	21.3358
270.685	3.72891
273.577	5.69008
276.47	5.52534
279.363	8.80423
282.255	15.7494
285.148	19.4611
288.041	24.0893
290.933	33.8731
293.826	30.3387
296.719	18.3156
299.612	38.2236
302.504	26.5289
305.397	28.7277
308.29	31.1848
311.182	38.8495
314.075	25.2237
316.968	18.0774
319.861	10.1476
322.753	34.684
325.646	11.3304
328.539	13.6489
331.431	13.623
334.324	0.693588
337.217	1.0997
340.109	9.79189
343.002	9.32271
345.895	15.5346
348.788	7.90855
351.68	11.086
354.573	3.94455
357.466	26.2409
360.358	4.571
363.251	6.21995
366.144	10.722
369.036	12.7499
371.929	10.4284
374.822	19.96
377.714	29.4388
380.607	19.7508
383.5	33.8228
386.393	43.3925
389.285	45.2243
392.178	16.4623
395.071	45.3641
397.963	47.9974
400.856	40.96
403.749	32.1728
406.642	24.2162
409.534	12.8711
412.427	11.6795
415.32	16.3256
418.212	4.66133
421.105	5.12454
423.998	6.75293
426.89	16.7214
429.783	11.5148
432.676	5.9749
435.568	18.8715
438.461	28.7212
441.354	20.9079
444.247	24.6183
447.139	20.8773
450.032	30.9632
452.925	25.5822
455.817	5.979
458.71	22.0997
461.603	22.808
464.496	7.39723
467.388	1.83299
470.281	14.43
473.174	0.676682
476.066	2.55684
478.959	10.8606
481.852	13.4781
484.745	17.6939
487.637	45.4174
490.53	59.8516
493.423	69.031
496.315	69.1084
499.208	56.3939
502.101	71.777
504.993	68.8734
507.886	60.7375
510.779	42.9802
513.672	35.9229
516.564	37.9589
519.457	30.8902
522.35	22.2598
525.242	17.8606
528.135	14.5234
531.028	16.7793
533.92	11.1643
536.813	23.3524
539.706	5.49968
542.598	14.9265
545.491	0.102966
548.384	3.12904
551.277	1.2789
554.169	20.4432
557.062	10.9852
559.955	4.90266
562.847	0.436981
565.74	19.8409
568.633	0.126801
571.525	13.6733
574.418	11.4334
577.311	3.31213
580.204	9.48143
583.096	24.5879
585.989	7.50253
588.882	16.9681
591.774	22.9826
594.667	3.45918
597.56	18.3472
600.452	11.4563
603.345	27.303
606.238	9.41214
609.131	10.0627
612.023	6.61446
614.916	21.0654
617.809	8.79755
620.701	24.4937
623.594	15.5637
626.487	18.8706
629.38	9.75867
632.272	37.8117
635.165	33.5509
638.058	34.3229
640.95	31.5049
643.843	13.7992
646.736	13.244
649.628	19.762
652.521	32.9002
655.414	14.2453
658.307	15.8548
661.199	23.0369
664.092	1.33147
666.985	15.7894
669.877	13.7053
672.77	6.47678
675.663	15.9156
678.556	5.31459
681.448	0.350754
684.341	4.62393
687.234	9.15991
690.126	21.8701
693.019	15.3567
695.912	13.6388
698.804	7.34552
701.697	9.59885
704.59	6.05873
707.482	15.5231
710.375	21.129
713.268	1.72671
716.161	12.6476
719.053	5.49451
721.946	8.61812
724.839	16.1305
727.731	7.70483
730.624	13.883
733.517	16.4626
736.409	9.27106
739.302	12.6613
742.195	7.56358
745.088	6.11609
747.98	4.9772
750.873	15.674
753.766	0.657639
756.658	1.5312
759.551	7.86697
762.444	16.9754
765.337	14.7343
768.229	13.6146
771.122	15.1939
774.015	18.8486
776.907	23.3459
779.8	24.177
782.693	17.3087
785.585	14.6784
788.478	4.34187
791.371	17.9989
794.264	13.4113
797.156	1.16396
800.049	14.1101
802.942	3.26617
805.834	16.8147
808.727	19.7656
811.62	1.30629
814.512	23.3271
817.405	7.12608
820.298	0.280167
823.191	10.2258
826.083	7.32912
828.976	15.5146
831.869	20.8804
834.761	15.2116
837.654	5.21526
840.547	5.17471
843.439	8.68684
846.332	17.3042
849.225	8.95102
852.118	9.82684
855.01	17.6334
857.903	3.31218
860.796	6.40793
863.688	12.4041
866.581	6.10463
869.474	6.35028
872.366	4.05415
875.259	13.979
878.152	16.4651
881.045	11.8024
883.937	2.48174
886.83	23.5405
889.723	8.522
892.615	20.4799
895.508	22.2151
898.401	7.64822
901.293	16.0696
904.186	10.3162
907.079	21.2851
909.972	16.8863
912.864	11.4029
915.757	7.08981
918.65	20.5599
921.542	6.20171
924.435	21.0781
927.328	17.9759
930.221	1.62843
933.113	5.13438
936.006	12.0415
938.899	3.14723
941.791	17.5593
944.684	18.2407
947.577	11.5527
950.469	13.7825
953.362	17.4106
956.255	10.1249
959.148	16.9232
962.04	6.62953
964.933	16.8751
967.826	1.47424
970.718	9.27445
973.611	8.66887
976.504	10.5431
979.396	1.08681
982.289	6.95776
985.182	7.46269
988.074	14.8654
990.967	18.278
993.86	1.79039
996.753	0.706787
999.645	22.9625
1002.54	16.4549
1005.43	16.0321
1008.32	1.83728
1011.22	3.14079
1014.11	9.25104
1017	13.3702
1019.89	7.8873
1022.79	0.504471
1025.68	5.09563
1028.57	9.27374
1031.46	10.8345
1034.36	12.9404
1037.25	11.346
1040.14	10.3551
1043.04	12.0767
1045.93	3.40485
1048.82	10.123
1051.71	7.8799
1054.61	8.85536
1057.5	18.2433
1060.39	6.83987
1063.29	14.3813
1066.18	16.6647
1069.07	0.815094
1071.96	18.5264
1074.86	2.98962
1077.75	4.14404
1080.64	1.1122
1083.53	9.54373
1086.43	20.7079
1089.32	25.0233
1092.21	24.9773
1095.1	10.3547
1098	13.9939
1100.89	22.1907
1103.78	20.5785
1106.67	16.8082
1109.57	14.083
1112.46	14.6933
1115.35	3.40109
1118.25	17.6872
1121.14	13.0948
1124.03	5.25484
1126.92	15.858
1129.82	12.7171
1132.71	0.080933
1135.6	6.2182
1138.49	7.51708
1141.39	4.5761
1144.28	18.4919
1147.17	3.20299
1150.07	9.05829
1152.96	10.5083
1155.85	1.39546
1158.74	10.7632
1161.64	7.91248
1164.53	19.9565
1167.42	1.42624
1170.32	16.8227
1173.21	11.4443
1176.1	9.71847
1178.99	3.52911
1181.88	19.8206
1184.78	18.512
1187.67	2.14252
1190.56	2.05544
1193.46	11.3911
1196.35	15.8312
1199.24	9.20506
1202.13	12.2349
1205.03	14.4384
1207.92	1.04297
1210.81	6.63747
1213.7	12.452
1216.6	3.73988
1219.49	16.6008
1222.38	9.31439
1225.28	13.9815
1228.17	21.9038
1231.06	22.7337
1233.95	14.2328
1236.85	7.99915
1239.74	12.2127
1242.63	18.0458
1245.53	4.74867
1248.42	15.2459
1251.31	16.5328
1254.2	23.4418
1257.1	11.8535
1259.99	19.613
1262.88	1.63
1265.77	14.35
1268.67	10.4437
1271.56	16.2322
1274.45	4.36067
1277.35	15.4698
1280.24	7.23315
