Measurement: Raman, 532 nm, unoriented, Raman Data Processed
Mineral: Huntite
Rruff sample: R040126
Ideal chemistry: CaMg_3_(CO_3_)_4_
Locality: Crestmore Quarry, Riverside County, California, USA
Source: University of Arizona Mineral Museum
Description: White fine-grained massive
Measured chemistry: Ca_0.97_Mg_3.02_(CO_3_)_4_
Raman shift (cm-1)	intensity
160.625	0
163.518	218.031
166.411	109.602
169.303	2.49219
172.196	64.9648
175.089	313.457
177.981	324.777
180.874	512.488
183.767	594.312
186.659	371.606
189.552	311.625
192.445	355.891
195.338	354.137
198.23	212.394
201.123	92.0859
204.016	8.63281
206.908	487.422
209.801	397.93
212.694	183.719
215.586	54.9297
218.479	29.3516
221.372	444.453
224.264	462.125
227.157	1231.99
230.05	1582
232.943	1435.91
235.835	1409.18
238.728	1785.87
241.621	2510.73
244.513	3177.91
247.406	2936.57
250.299	2862.18
253.191	3370.48
256.084	3040.1
258.977	2135.79
261.87	1691.73
264.762	2018.62
267.655	2694.56
270.548	4211.57
273.44	4626.5
276.333	2693.43
279.226	2064.86
282.118	1497.36
285.011	975.625
287.904	503.164
290.796	457
293.689	331.023
296.582	12.1016
299.475	199.203
302.367	128.93
305.26	927.273
308.153	1014.04
311.045	1486.16
313.938	1756.86
316.831	1996.97
319.724	1370
322.616	676.039
325.509	205.711
328.402	389.203
331.294	632.875
334.187	689.781
337.08	426.703
339.972	311.477
342.865	34.0781
345.758	158.047
348.651	323.914
351.543	361.969
354.436	739.336
357.329	355.344
360.221	589.953
363.114	240.406
366.007	105.273
368.899	548.094
371.792	479.977
374.685	274.906
377.577	588.406
380.47	673.945
383.363	990.766
386.256	698.352
389.148	737.688
392.041	437.805
394.934	400.055
397.826	537.68
400.719	242.891
403.612	207.281
406.505	322.719
409.397	105.969
412.29	207.891
415.183	166.508
418.075	302.406
420.968	390.945
423.861	98.4766
426.753	130.562
429.646	127.219
432.539	315.68
435.432	629.281
438.324	257.648
441.217	259.086
444.11	543.406
447.002	632.516
449.895	318.195
452.788	135.203
455.68	211.508
458.573	368.219
461.466	93.5156
464.358	325.477
467.251	138.82
470.144	453.617
473.037	319.703
475.929	331.383
478.822	232.383
481.715	432.445
484.607	513.875
487.5	601.727
490.393	742.102
493.286	118.023
496.178	179.969
499.071	312.141
501.964	574.852
504.856	440.75
507.749	34.0938
510.642	65.4531
513.534	1091.94
516.427	614.469
519.32	247.703
522.212	148.672
525.105	156.898
527.998	19.4922
530.891	623.984
533.783	691.359
536.676	645.508
539.569	342.641
542.461	293.945
545.354	275.516
548.247	201.906
551.139	145.352
554.032	85.625
556.925	611.328
559.818	394.023
562.71	808.258
565.603	679.445
568.496	197.398
571.388	316.758
574.281	306.891
577.174	318.117
580.067	447.539
582.959	311.125
585.852	468.984
588.745	375.953
591.637	599.961
594.53	890.031
597.423	718.711
600.315	607.859
603.208	267.57
606.101	169.461
608.994	3.76562
611.886	319.039
614.779	285.977
617.672	514.203
620.564	253.836
623.457	541.406
626.35	426.297
629.242	140.672
632.135	100.859
635.028	1.46818
637.92	278.039
640.813	559.5
643.706	15.4922
646.599	184.406
649.491	140.359
652.384	332.805
655.277	441.227
658.169	403.242
661.062	334.141
663.955	355.445
666.847	323.969
669.74	311.32
672.633	108.352
675.525	104.984
678.418	36.2812
681.311	555.727
684.204	633.328
687.096	391.57
689.989	241.109
692.882	407.602
695.774	270.664
698.667	416.414
701.56	665.188
704.452	559.328
707.345	702.961
710.238	792.242
713.131	842.875
716.023	823.922
718.916	995.562
721.809	967.43
724.701	1130.87
727.594	942.352
730.487	645.422
733.38	14.7422
736.272	31.875
739.165	62.0938
742.058	362.789
744.95	483.141
747.843	601.477
750.736	492.156
753.628	314.547
756.521	225.523
759.414	204.016
762.307	18.2812
765.199	319.68
768.092	538.695
770.985	649.719
773.877	608.469
776.77	486.266
779.663	488.609
782.555	394.117
785.448	182.602
788.341	387.266
791.234	198.898
794.126	429.914
797.019	700.281
799.912	788.055
802.804	760.742
805.697	526.547
808.59	244.18
811.482	515.609
814.375	247.742
817.268	133.32
820.16	56.4219
823.053	6.21875
825.946	396.07
828.839	285.148
831.731	429.281
834.624	73.6016
837.517	30.2344
840.409	17.6172
843.302	267.93
846.195	416
849.087	511.781
851.98	321.992
854.873	293.336
857.766	519.062
860.658	498.719
863.551	387.688
866.444	321.883
869.336	64.0312
872.229	75.7734
875.122	291.375
878.014	791.484
880.907	946.188
883.8	793.875
886.693	560.969
889.585	353.383
892.478	48.7812
895.371	67.2656
898.263	425.078
901.156	316.984
904.049	32.8047
906.942	58.6797
909.834	203.75
912.727	191.789
915.62	96.5078
918.512	254.234
921.405	334.852
924.298	435.617
927.19	439.914
930.083	69.1562
932.976	251.109
935.869	28.6797
938.761	681.109
941.654	159.086
944.547	281.688
947.439	555.164
950.332	521.883
953.225	479.781
956.117	574.305
959.01	120.125
961.903	294.367
964.795	272.648
967.688	190.828
970.581	606.523
973.474	820.992
976.366	139.312
979.259	52.3047
982.152	436.664
985.044	473.859
987.937	462.953
990.83	153.875
993.722	172.648
996.615	360.797
999.508	650.758
1002.4	1174.23
1005.29	691.281
1008.19	579.352
1011.08	413.117
1013.97	423.094
1016.86	689.984
1019.76	343.836
1022.65	117.109
1025.54	412.023
1028.43	397.945
1031.33	778.469
1034.22	555.734
1037.11	404.383
1040.01	752.812
1042.9	491.953
1045.79	362.109
1048.68	164.031
1051.58	51.5156
1054.47	227.5
1057.36	123.359
1060.26	312.125
1063.15	354.594
1066.04	179.109
1068.93	96.0312
1071.83	332.062
1074.72	313.391
1077.61	638.422
1080.5	426.594
1083.4	506.859
1086.29	194.141
1089.18	407.922
1092.07	346.641
1094.97	467
1097.86	829.016
1100.75	762.547
1103.64	1298.23
1106.54	1693.44
1109.43	2610.86
1112.32	4636.16
1115.22	7666.44
1118.11	11367.5
1121	15913.7
1123.89	15868.8
1126.79	7557.12
1129.68	3251.81
1132.57	1947.91
1135.46	1439.17
1138.36	1300.17
1141.25	394.547
1144.14	321.469
1147.04	806.766
1149.93	665.047
1152.82	484.441
1155.71	527.875
1158.61	385.203
1161.5	422.359
1164.39	21.7344
1167.28	82.0729
1170.18	156.672
1173.07	356.906
1175.96	443.219
1178.86	260.234
1181.75	360.172
1184.64	487.641
1187.53	926.609
1190.43	1279.05
1193.32	557.391
1196.21	588.266
1199.1	289.172
1202	381.156
1204.89	656.797
1207.78	834.5
1210.67	847.469
1213.57	712.344
1216.46	553.688
1219.35	601.469
1222.25	663.75
1225.14	384.734
1228.03	387.812
1230.92	88.1094
1233.82	320.734
1236.71	313.797
1239.6	644.484
1242.49	802.203
1245.39	739.516
1248.28	673.094
1251.17	729.375
1254.07	643.422
1256.96	687.484
1259.85	581.078
1262.74	588.5
1265.64	260.781
1268.53	221
1271.42	368.031
1274.31	583.047
1277.21	252.688
1280.1	410.703
1282.99	313.859
1285.88	105.328
1288.78	87.9219
1291.67	181.312
1294.56	29.25
1297.46	103.172
