Measurement: Raman, 780 nm, unoriented, Raman Data Processed
Mineral: Hurlbutite
Rruff sample: R090048
Ideal chemistry: CaBe_2_P_2_O_8_
Locality: Smith mine, Chandler's Mill, Newport, New Hampshire
Source: University of Arizona Mineral Museum 1636
Description: Colorless glassy grains in matrix, associated with, and hard to visually distinguish from quartz
Raman shift (cm-1)	intensity
104.56	0
107.453	0.121643
110.346	8.86963
113.239	35.5105
116.131	41.8925
119.024	47.4129
121.917	83.0265
124.809	117.784
127.702	159.013
130.595	177.397
133.487	184.212
136.38	183.429
139.273	182.204
142.166	176.626
145.058	191.404
147.951	183.203
150.844	192.847
153.736	217.57
156.629	240.641
159.522	262.523
162.414	265.681
165.307	175.639
168.2	118.512
171.093	76.9964
173.985	54.4479
176.878	47.5206
179.771	45.2248
182.663	27.3895
185.556	41.0832
188.449	22.9867
191.341	4.25568
194.234	5.15125
197.127	7.91553
200.019	2.59479
202.912	8.64636
205.805	2.03888
208.697	36.0466
211.59	37.7553
214.483	5.99292
217.376	2.1355
220.268	10.2236
223.161	14.4329
226.054	12.6618
228.946	6.17871
231.839	0.514343
234.732	0.410034
237.625	2.71936
240.517	4.20373
243.41	11.8238
246.303	31.8622
249.195	59.6163
252.088	98.421
254.981	93.7824
257.873	48.4507
260.766	13.5975
263.659	3.49799
266.551	0.583679
269.444	3.53626
272.337	13.7996
275.23	29.3331
278.122	63.2302
281.015	108.608
283.908	153.702
286.8	208.903
289.693	260.714
292.586	290.646
295.478	278.196
298.371	240.691
301.264	194.008
304.157	143.832
307.049	114.188
309.942	96.2329
312.835	84.3594
315.727	80.0501
318.62	75.9276
321.513	54.0588
324.406	29.9983
327.298	8.21448
330.191	3.5918
333.084	0.302612
335.976	12.7993
338.869	30.0289
341.762	45.1766
344.654	63.3071
347.547	85.1542
350.44	113.002
353.332	134.182
356.225	131.941
359.118	127.021
362.01	119.926
364.903	103.408
367.796	79.257
370.689	68.2679
373.581	55.8193
376.474	43.6983
379.367	33.9356
382.259	27.7775
385.152	22.1666
388.045	18.9092
390.938	11.3202
393.83	8.88324
396.723	1.23853
399.616	2.24078
402.508	3.38037
405.401	2.22382
408.294	1.35608
411.186	1.8913
414.079	1.09503
416.972	0.229614
419.865	3.02386
422.757	6.15698
425.65	19.9446
428.543	36.7939
431.435	45.6026
434.328	41.6631
437.221	41.2145
440.113	61.1433
443.006	68.5349
445.899	39.3969
448.791	25.8264
451.684	10.6652
454.577	12.5889
457.47	20.5241
460.362	29.4844
463.255	38.9612
466.148	45.2944
469.04	62.254
471.933	81.7431
474.826	99.4483
477.719	68.1119
480.611	51.6965
483.504	47.1234
486.397	48.0272
489.289	58.4066
492.182	82.1213
495.075	87.5131
497.967	48.6725
500.86	30.7505
503.753	24.9804
506.645	20.8496
509.538	17.8422
512.431	16.8745
515.323	18.988
518.216	11.6745
521.109	3.44781
524.002	3.84586
526.894	0.274994
529.787	0.560516
532.68	0.756683
535.572	0.788269
538.465	2.75281
541.358	9.14444
544.25	15.385
547.143	24.389
550.036	40.3715
552.929	50.6476
555.821	73.8973
558.714	79.1877
561.607	60.0025
564.499	48.1227
567.392	59.2498
570.285	77.964
573.178	80.0663
576.07	71.4557
578.963	87.6017
581.856	110.68
584.748	81.5228
587.641	43.5748
590.534	32.1545
593.426	34.2254
596.319	27.8899
599.212	16.0417
602.105	9.3598
604.997	8.47839
607.89	7.33551
610.783	9.37109
613.675	5.53625
616.568	6.80856
619.461	6.83194
622.353	11.3394
625.246	16.3082
628.139	14.3833
631.031	8.04849
633.924	3.67886
636.817	2.6098
639.71	3.19424
642.602	3.08472
645.495	0.096252
648.388	0.74469
651.28	0.249237
654.173	2.75833
657.066	2.07077
659.958	2.71378
662.851	1.96829
665.744	3.00671
668.636	6.83957
671.529	10.2144
674.422	14.0978
677.315	13.1923
680.207	17.9543
683.1	17.378
685.993	23.971
688.885	29.5337
691.778	33.3254
694.671	41.2024
697.563	46.7646
700.456	50.1811
703.349	52.329
706.242	55.9457
709.134	59.2197
712.027	63.7073
714.92	64.2398
717.812	59.2767
720.705	57.2241
723.598	45.5397
726.49	38.0863
729.383	31.7369
732.276	31.5536
735.169	22.8628
738.061	16.4231
740.954	13.268
743.847	12.952
746.739	14.6095
749.632	9.19806
752.525	7.57517
755.418	3.9596
758.31	1.96964
761.203	1.0647
764.096	3.24207
766.988	2.92624
769.881	5.03629
772.774	8.12631
775.666	3.20157
778.559	2.51212
781.452	4.04602
784.345	1.73035
787.237	2.40704
790.13	3.79858
793.023	8.58038
795.915	10.977
798.808	11.5484
801.701	15.4002
804.593	10.2973
807.486	11.9682
810.379	7.40439
813.271	6.65265
816.164	5.30377
819.057	1.59018
821.949	2.20438
824.842	1.16318
827.735	1.37705
830.628	0.373474
833.52	0.877136
836.413	1.33508
839.306	0.140808
842.198	1.09286
845.091	0.216583
847.984	0.874451
850.876	2.1481
853.769	0.420135
856.662	1.57303
859.555	4.48224
862.447	2.6579
865.34	4.38477
868.233	5.13931
871.125	3.49072
874.018	6.11703
876.911	3.17361
879.803	4.20004
882.696	3.00263
885.589	7.80048
888.482	11.1162
891.374	10.0671
894.267	11.0589
897.16	7.23935
900.052	12.2949
902.945	11.9311
905.838	9.68707
908.731	11.8128
911.623	12.8813
914.516	16.5341
917.409	18.0971
920.301	21.154
923.194	21.4851
926.087	28.1726
928.979	28.2077
931.872	30.3056
934.765	34.6617
937.658	33.5234
940.55	29.4802
943.443	25.9908
946.336	19.8991
949.228	16.9161
952.121	10.7414
955.014	12.2274
957.906	8.24762
960.799	7.33746
963.692	3.8046
966.584	1.07083
969.477	1.89087
972.37	0.480957
975.263	0.332306
978.155	1.3425
981.048	0.905945
983.941	3.72769
986.833	4.1319
989.726	13.1599
992.619	18.9777
995.511	37.4756
998.404	50.15
1001.3	81.2153
1004.19	120.881
1007.08	154.705
1009.98	180.142
1012.87	220.545
1015.76	263.302
1018.65	252.968
1021.55	184.898
1024.44	125.718
1027.33	94.5624
1030.22	77.8338
1033.12	60.446
1036.01	57.6127
1038.9	54.2454
1041.8	27.7695
1044.69	9.11591
1047.58	1.16077
1050.47	0.950134
1053.37	4.80426
1056.26	13.8796
1059.15	22.2237
1062.04	25.4492
1064.94	12.3029
1067.83	6.9787
1070.72	4.10229
