Measurement: Raman, 532 nm, unoriented, Raman Data Processed
Mineral: Hydrokenoralstonite
Rruff sample: R060012
Ideal chemistry: [box]_2_Al_2_F_6_(H_2_O)
Locality: Ivigtut, Greenland
Source: University of Arizona Mineral Museum
Description: Colorless octahedral ralstonite stained with iron oxide, associated with thomsenolite
Measured chemistry: Na_0.70_Mg_0.70_Al_1.30_(F_4.18_(OH)_1.82_)_Σ=6_·H_2_O
Raman shift (cm-1)	intensity
154.635	0
157.528	3.62183
160.421	0.461914
163.313	0.834717
166.206	0.504639
169.099	11.3188
171.991	2.08643
174.884	3.03735
177.777	5.29761
180.669	6.20679
183.562	10.9829
186.455	9.51855
189.347	8.72534
192.24	9.73096
195.133	11.4373
198.025	5.48486
200.918	23.2419
203.811	15.3723
206.704	19.1919
209.596	16.6182
212.489	22.8474
215.382	22.8401
218.274	32.4614
221.167	39.102
224.06	42.1633
226.952	60.9705
229.845	63.3982
232.738	71.6506
235.631	81.6262
238.523	87.3201
241.416	92.3848
244.309	109.443
247.201	110.62
250.094	115.572
252.987	111.353
255.88	110.07
258.772	108.672
261.665	102.721
264.558	104.057
267.45	95.4116
270.343	90.6091
273.236	73.4136
276.128	59.8679
279.021	58.4661
281.914	56.5344
284.807	41.5115
287.699	31.8726
290.592	24.3254
293.485	23.9536
296.377	21.0725
299.27	9.49414
302.163	5.65918
305.055	12.3791
307.948	10.8545
310.841	4.76611
313.733	11.4348
316.626	12.8403
319.519	18.7307
322.412	7.49609
325.304	9.29199
328.197	2.01807
331.09	2.33667
333.982	2.2019
336.875	8.35596
339.768	10.2056
342.661	0.634766
345.553	1.60669
348.446	8.02563
351.339	0.175781
354.231	5.37622
357.124	0.68335
360.017	2.84106
362.909	13.6697
365.802	15.6658
368.695	15.221
371.587	15.9126
374.48	2.10425
377.373	15.8979
380.266	9.16382
383.158	7.66431
386.051	11.1352
388.944	5.5813
391.836	6.80151
394.729	8.57764
397.622	22.2837
400.514	24.9898
403.407	37.928
406.3	46.6233
409.193	54.0762
412.085	60.5901
414.978	69.1907
417.871	78.9109
420.763	98.9785
423.656	101.227
426.549	105.328
429.442	103.821
432.334	101.345
435.227	93.6067
438.12	106.688
441.012	109.162
443.905	110.58
446.798	109.097
449.69	122.17
452.583	117.744
455.476	129.861
458.368	143.181
461.261	155.334
464.154	166.158
467.047	178.569
469.939	190.278
472.832	206.871
475.725	216.621
478.617	229.196
481.51	234.062
484.403	240.429
487.296	224.754
490.188	212.76
493.081	197.552
495.974	175.275
498.866	162.044
501.759	140.358
504.652	113.211
507.544	92.7163
510.437	78.0102
513.33	59.2808
516.222	44.6633
519.115	31.8113
522.008	33.2422
524.901	27.1497
527.793	19.366
530.686	14.7144
533.579	10.9338
536.471	13.8345
539.364	6.05981
542.257	3.31103
545.149	0.322998
548.042	6.02564
550.935	11.5034
553.828	2.94678
556.72	9.06543
559.613	6.11865
562.506	1.07373
565.398	9.54297
568.291	8.05566
571.184	4.33423
574.077	6.10767
576.969	7.62329
579.862	12.4988
582.755	5.19116
585.647	16.1494
588.54	23.5823
591.433	28.9287
594.325	26.5469
597.218	21.2349
600.111	27.5359
603.003	28.8789
605.896	35.2781
608.789	28.5249
611.682	21.6907
614.574	20.167
617.467	17.0535
620.36	6.43604
623.252	11.2991
626.145	20.5298
629.038	21.3694
631.93	18.3606
634.823	14.3696
637.716	19.8284
640.609	16.6716
643.501	25.5486
646.394	14.5933
649.287	17.7998
652.179	9.41528
655.072	5.19824
657.965	11.1606
660.857	18.6196
663.75	15.8335
666.643	18.9263
669.535	16.2878
672.428	11.5093
675.321	21.3662
678.214	18.8957
681.106	1.14868
683.999	9.91577
686.892	0.909912
689.784	0.834961
692.677	18.7598
695.57	16.3445
698.462	2.66675
701.355	9.10767
704.248	15.2832
707.141	18.6316
710.033	19.9414
712.926	17.5283
715.819	17.8076
718.711	15.2732
721.604	16.8709
724.497	14.387
727.389	13.7251
730.282	0.239502
733.175	11.1792
736.068	12.2285
738.96	15.9273
741.853	18.761
744.746	5.7356
747.638	7.54736
750.531	10.7315
753.424	5.06665
756.317	1.21216
759.209	2.08887
762.102	10.2266
764.995	11.5081
767.887	11.5029
770.78	11.044
773.673	1.09692
776.565	11.834
779.458	10.5388
782.351	24.2512
785.244	22.0295
788.136	7.63257
791.029	7.26147
793.922	4.61719
796.814	6.63647
799.707	0.614746
802.6	0.997803
805.492	3.56323
808.385	2.12793
811.278	10.3596
814.17	8.39233
817.063	6.80078
819.956	1.39746
822.849	2.88525
825.741	4.0769
828.634	11.9956
831.527	3.72412
834.419	12.7932
837.312	12.0166
840.205	16.1152
843.097	19.9641
845.99	10.7293
848.883	10.0552
851.776	1.33838
854.668	6.76221
857.561	15.1931
860.454	19.9094
863.346	27.5808
866.239	19.0112
869.132	15.1672
872.024	24.1965
874.917	9.21387
877.81	13.8442
880.703	3.56812
883.595	8.40747
886.488	9.72437
889.381	3.18921
892.273	5.29419
895.166	5.24439
898.059	12.8479
900.952	12.7437
903.844	20.5432
906.737	24.0649
909.63	20.4031
912.522	13.5271
915.415	13.3579
918.308	13.6257
921.2	15.5039
924.093	10.2224
926.986	7.31055
929.879	4.53394
932.771	12.3735
935.664	11.2661
938.557	7.18091
941.449	3.90991
944.342	13.8152
947.235	0.733154
950.127	9.30029
953.02	1.57812
955.913	10.1104
958.806	3.99194
961.698	5.50977
964.591	3.39844
967.484	5.69409
970.376	9.80713
973.269	3.15674
976.162	10.2173
979.054	9.68481
981.947	18.6372
984.84	15.864
987.732	9.14722
990.625	10.2195
993.518	11.3894
996.41	11.406
999.303	14.9399
1002.2	4.44263
1005.09	9.30762
1007.98	13.0793
1010.87	10.4817
1013.77	7.68994
1016.66	11.5547
1019.55	4.80444
1022.45	17.7752
1025.34	13.863
1028.23	11.7478
1031.12	11.9185
1034.02	1.41577
1036.91	9.32642
1039.8	12.1435
1042.69	12.2017
1045.59	13.2566
1048.48	16.0991
1051.37	12.1787
1054.27	2.14038
1057.16	11.9273
1060.05	14.2119
1062.94	0.429688
1065.84	15.0444
1068.73	1.11572
1071.62	3.79175
1074.51	25.2778
1077.41	20.5486
1080.3	13.7376
1083.19	10.6111
1086.08	20.1609
1088.98	10.7595
1091.87	0.539795
1094.76	15.1023
1097.65	3.91626
1100.55	0.526367
1103.44	1.11621
1106.33	3.29712
1109.23	16.0085
1112.12	6.27271
1115.01	3.23267
1117.9	1.12524
1120.8	0.099121
1123.69	10.5659
1126.58	9.59815
1129.47	17.8235
1132.37	14.6831
1135.26	14.6731
1138.15	15.002
1141.05	13.1956
1143.94	17.4705
1146.83	17.7856
1149.72	24.4612
1152.62	21.917
1155.51	16.3086
1158.4	15.7087
1161.29	11.9177
1164.19	17.02
1167.08	30.9563
1169.97	15.3347
1172.87	10.2964
1175.76	4.78931
1178.65	17.8171
1181.54	25.082
1184.44	19.7976
1187.33	11.5754
1190.22	10.3843
1193.11	11.3965
1196.01	7.6626
1198.9	14.1724
1201.79	5.10938
1204.68	1.65234
1207.58	6.22363
1210.47	4.94141
1213.36	4.99268
1216.26	25.9067
1219.15	27.1128
1222.04	16.0874
1224.93	15.2734
1227.83	14.8071
1230.72	7.81592
1233.61	16.2739
1236.51	9.18359
1239.4	4.76221
1242.29	0.587891
1245.18	13.7354
1248.08	13.8784
1250.97	19.2031
1253.86	23.6953
1256.75	15.0132
1259.65	18.0933
1262.54	20.1685
1265.43	18.1968
1268.32	8.87305
1271.22	26.939
1274.11	9.83154
1277	11.8213
1279.89	4.66553
1282.79	18.9253
1285.68	21.5879
1288.57	16.7773
1291.47	12.5688
1294.36	10.6553
1297.25	3.49414
1300.14	13.2065
1303.04	10.4658
