Measurement: Raman, 780 nm, unoriented, Raman Data Processed
Mineral: Hydrokenoralstonite
Rruff sample: R060012
Ideal chemistry: [box]_2_Al_2_F_6_(H_2_O)
Locality: Ivigtut, Greenland
Source: University of Arizona Mineral Museum
Description: Colorless octahedral ralstonite stained with iron oxide, associated with thomsenolite
Measured chemistry: Na_0.70_Mg_0.70_Al_1.30_(F_4.18_(OH)_1.82_)_Σ=6_·H_2_O
Raman shift (cm-1)	intensity
164.417	0
167.31	0.801147
170.202	2.86237
173.095	0.481812
175.988	2.80414
178.881	4.1842
181.773	0.188293
184.666	5.5556
187.559	6.02447
190.451	5.49872
193.344	8.74115
196.237	12.5371
199.129	12.11
202.022	13.7014
204.915	13.032
207.808	17.6887
210.7	32.779
213.593	23.7994
216.486	30.2787
219.378	33.187
222.271	41.648
225.164	47.6759
228.056	56.423
230.949	61.5454
233.842	63.2903
236.734	71.048
239.627	78.7703
242.52	90.4426
245.413	91.8116
248.305	93.1121
251.198	97.5748
254.091	100.6
256.983	103.166
259.876	101.515
262.769	94.6466
265.661	90.6702
268.554	82.6238
271.447	68.0927
274.34	60.4437
277.232	46.7612
280.125	41.1766
283.018	30.6837
285.91	24.0717
288.803	13.9335
291.696	9.73956
294.589	6.65979
297.481	4.88757
300.374	5.42413
303.267	2.97742
306.159	3.48456
309.052	0.41925
311.945	5.80859
314.837	3.41577
317.73	2.29291
320.623	4.43713
323.515	0.403503
326.408	1.42535
329.301	0.591858
332.194	0.079224
335.086	1.76446
337.979	0.931641
340.872	0.155518
343.764	1.35346
346.657	1.2019
349.55	0.82843
352.442	2.02155
355.335	0.807007
358.228	2.31103
361.121	4.21106
364.013	2.65595
366.906	6.78937
369.799	6.1413
372.691	4.90326
375.584	9.57617
378.477	3.61371
381.37	5.69946
384.262	1.29102
387.155	0.191406
390.048	5.87964
392.94	3.12891
395.833	8.91821
398.726	8.55609
401.618	14.0454
404.511	21.5071
407.404	24.7798
410.296	29.9008
413.189	33.3711
416.082	37.9509
418.975	42.5391
421.867	44.5196
424.76	45.2206
427.653	44.4336
430.545	46.7621
433.438	46.8784
436.331	47.7191
439.224	44.7544
442.116	46.7504
445.009	47.4526
447.902	50.9014
450.794	52.6824
453.687	56.0387
456.58	61.7084
459.472	66.634
462.365	69.4122
465.258	75.1743
468.151	80.3024
471.043	91.7431
473.936	88.1528
476.829	97.0861
479.721	93.585
482.614	92.3624
485.507	92.2976
488.399	91.3605
491.292	83.545
494.185	76.528
497.077	66.444
499.97	56.7669
502.863	47.7458
505.756	38.2908
508.648	36.2449
511.541	28.7045
514.434	24.1979
517.326	20.6494
520.219	24.3143
523.112	13.9083
526.005	7.15936
528.897	8.7207
531.79	3.71838
534.683	4.49506
537.575	1.23297
540.468	2.742
543.361	0.754456
546.253	0.760071
549.146	1.27191
552.039	3.45392
554.932	1.46509
557.824	0.508728
560.717	1.77985
563.61	1.82605
566.502	0.566406
569.395	1.50806
572.288	0.379272
575.18	0.943176
578.073	2.32062
580.966	0.867493
583.859	5.84992
586.751	5.17578
589.644	9.04028
592.537	6.86334
595.429	12.444
598.322	9.62921
601.215	8.72534
604.107	14.1325
607	15.3253
609.893	12.6776
612.785	8.53119
615.678	9.40198
618.571	10.8249
621.464	9.77777
624.356	15.2368
627.249	9.6546
630.142	7.45593
633.034	10.7673
635.927	9.56696
638.82	8.49353
641.712	4.34735
644.605	4.17761
647.498	4.25989
650.391	1.35431
653.283	3.77399
656.176	4.8562
659.069	2.8092
661.961	5.81043
664.854	2.89172
667.747	5.85666
670.639	0.929291
673.532	5.0445
676.425	2.57645
679.318	4.18744
682.21	3.07132
685.103	0.225708
687.996	0.682373
690.888	4.62741
693.781	3.07037
696.674	3.40338
699.567	4.49918
702.459	1.75122
705.352	2.19455
708.245	1.5325
711.137	6.02136
714.03	6.06024
716.923	5.07898
719.815	4.25006
722.708	2.30026
725.601	2.43927
728.494	2.80112
731.386	1.11877
734.279	1.17096
737.172	2.8064
740.064	4.41641
742.957	2.9523
745.85	3.22827
748.742	3.00296
751.635	3.93512
754.528	2.17783
757.42	0.214264
760.313	2.08618
763.206	4.22562
766.099	1.51712
768.991	1.23996
771.884	2.21347
774.777	1.0867
777.669	0.086761
780.562	0.225098
783.455	0.946564
786.347	3.23651
789.24	1.26639
792.133	3.75415
795.026	2.7449
797.918	0.45459
800.811	2.74054
803.704	0.550323
806.596	2.87271
809.489	4.30133
812.382	3.93256
815.274	2.77274
818.167	2.24344
821.06	7.24512
823.953	7.25049
826.845	5.51831
829.738	6.25653
832.631	1.83493
835.523	6.17316
838.416	7.54608
841.309	3.74704
844.201	5.4487
847.094	4.47174
849.987	6.34521
852.88	5.68503
855.772	5.25314
858.665	4.92725
861.558	5.76639
864.45	2.6304
867.343	4.5274
870.236	2.77008
873.128	5.51267
876.021	4.12146
878.914	2.32193
881.807	2.0668
884.699	3.79233
887.592	3.84949
890.485	2.90924
893.377	2.10452
896.27	2.94577
899.163	0.974854
902.055	0.302002
904.948	0.163269
907.841	1.62616
910.734	2.24701
913.626	0.58139
916.519	3.17355
919.412	0.94928
922.304	2.49289
925.197	1.10629
928.09	10.0359
930.982	1.93207
933.875	3.77881
936.768	3.46085
939.66	0.07962
942.553	2.86694
945.446	0.679718
948.339	1.37814
951.231	1.88077
954.124	3.84897
957.017	6.46301
959.909	0.78598
962.802	1.95926
965.695	4.28168
968.587	0.687195
971.48	3.1206
974.373	1.88113
977.266	3.66815
980.158	0.089355
983.051	1.40891
985.944	3.21612
988.836	0.386871
991.729	4.28485
994.622	0.879883
997.514	0.189362
1000.41	1.12015
1003.3	3.63733
1006.19	2.83597
1009.09	0.818573
1011.98	3.9407
1014.87	3.5693
1017.76	2.05707
1020.66	2.65872
1023.55	4.48294
1026.44	4.02911
1029.33	3.79034
1032.23	4.04532
1035.12	5.36426
1038.01	3.07333
1040.9	0.997986
1043.8	6.33414
1046.69	4.54913
1049.58	2.96622
1052.48	2.61682
1055.37	4.61044
1058.26	4.20761
1061.15	2.54868
1064.05	2.81732
1066.94	3.22458
1069.83	8.3624
1072.72	2.517
1075.62	6.13092
1078.51	6.70862
1081.4	11.5739
1084.3	16.4633
1087.19	26.8178
1090.08	12.7262
1092.97	2.00275
1095.87	5.59119
1098.76	0.747009
1101.65	2.64667
1104.54	2.26868
1107.44	1.1069
1110.33	0.039093
1113.22	0.982697
1116.12	0.017883
1119.01	0.800659
1121.9	0.051666
1124.79	1.11731
1127.69	2.53851
1130.58	3.67438
1133.47	5.61798
1136.36	2.57672
1139.26	5.95425
1142.15	2.68335
1145.04	7.28104
1147.93	3.7374
1150.83	3.76163
1153.72	6.0383
1156.61	3.60748
1159.51	7.79581
1162.4	11.5785
1165.29	6.50967
1168.18	6.99618
1171.08	8.22424
1173.97	5.73862
1176.86	6.17416
1179.76	6.18866
1182.65	6.16812
1185.54	3.16461
1188.43	5.29971
1191.33	5.8566
1194.22	4.66708
1197.11	3.34598
1200	1.23138
1202.9	1.63318
1205.79	1.99011
1208.68	1.41019
1211.57	0.845551
1214.47	1.33081
1217.36	1.83807
1220.25	2.97397
1223.14	3.17862
1226.04	3.26111
1228.93	1.14215
1231.82	1.7482
1234.72	1.82111
1237.61	3.07599
1240.5	4.03235
1243.39	0.130402
1246.29	2.87677
1249.18	0.943787
1252.07	1.62308
1254.96	0.449615
1257.86	1.85193
1260.75	3.03088
1263.64	2.61704
1266.54	1.35992
1269.43	1.09976
1272.32	1.8165
1275.21	2.12775
1278.11	1.16806
1281	1.86536
1283.89	0.078705
1286.79	1.33701
