Measurement: Raman, 514 nm, unoriented, Raman Data Processed
Mineral: Hydrotalcite
Rruff sample: R050457
Ideal chemistry: Mg_6_Al_2_CO_3_(OH)_16_(H_2_O)_4_
Locality: Snarum, Norway
Source: University of Arizona Mineral Museum
Description: Pearly-white foliated mass
Measured chemistry: Mg_6.00_(Al_1.60_Fe^3+^_0.40_)_Σ=2_(CO_3_)(OH)_16_·4H_2_O
Raman shift (cm-1)	intensity
171.07	0
175.213	134.716
179.354	231.352
183.493	143.916
187.63	234.172
191.765	332.512
195.898	134.626
200.029	341.995
204.158	211.821
208.285	185.271
212.41	52.4052
216.533	9.82765
220.654	54.6277
224.773	56.5506
228.891	5.95953
233.006	47.6007
237.119	0.627174
241.231	25.507
245.34	14.9483
249.448	22.6114
253.553	106.079
257.657	94.1495
261.758	11.2762
265.858	16.663
269.956	24.5826
274.052	31.1488
278.146	18
282.237	35.5205
286.327	45.912
290.416	123.872
294.502	249.083
298.586	138.757
302.668	147.701
306.749	153.856
310.827	126.113
314.903	268.31
318.978	359.394
323.051	301.476
327.121	410.637
331.19	276.43
335.257	319.081
339.322	431.292
343.385	238.558
347.446	203.537
351.505	222.243
355.563	246.109
359.618	275.345
363.672	253.353
367.723	202.53
371.773	435.018
375.821	442.949
379.866	212.066
383.91	535.69
387.952	347.814
391.992	273.055
396.031	267.899
400.067	217.042
404.101	182.242
408.134	124.508
412.165	196.1
416.193	267.379
420.22	84.2759
424.245	191.75
428.268	231.572
432.289	231.523
436.309	256.549
440.326	350.499
444.342	491.787
448.355	749.838
452.367	613.856
456.377	390.217
460.385	570.544
464.391	619.046
468.395	709.496
472.398	393.597
476.398	365.138
480.397	174.485
484.394	332.299
488.389	289.318
492.382	304.774
496.373	138.686
500.362	233.785
504.349	290.787
508.335	368.073
512.319	610.475
516.3	736.892
520.28	1076.8
524.259	1632.65
528.235	2189.23
532.209	2159.23
536.182	2439.85
540.152	2816.11
544.121	2766.02
548.088	2770.11
552.053	2175.41
556.017	1480.17
559.978	883.079
563.938	513.539
567.895	246.928
571.851	277.766
575.805	249.262
579.758	125.872
583.708	215.141
587.657	149.038
591.603	180.673
595.548	128.459
599.491	85.6384
603.432	92.1598
607.372	122.616
611.309	131.758
615.245	206.62
619.179	209.932
623.111	513.762
627.041	30.0364
630.97	45.6289
634.896	144.067
638.821	35.4795
642.744	202
646.665	120.452
650.584	59.1371
654.502	52.172
658.418	138.303
662.331	9.2452
666.244	1.34942
670.154	184.864
674.062	283.962
677.969	85.6209
681.874	171.411
685.777	203.262
689.678	205.711
693.577	127.461
697.475	212.889
701.371	103.266
705.265	83.2916
709.157	65.465
713.047	287.348
716.936	71.1183
720.823	217.712
724.708	155.544
728.591	261.022
732.472	221.736
736.352	20.0581
740.23	348.409
744.106	143.297
747.98	104.73
751.853	418.492
755.723	152.22
759.592	32.0916
763.459	319.804
767.325	508.836
771.188	188.058
775.05	17.4726
778.91	292.914
782.768	52.5906
786.625	53.7672
790.479	44.986
794.332	3.60066
798.183	329.067
802.033	122.082
805.88	33.3787
809.726	35.7481
813.57	42.4954
817.413	31.1181
821.253	220.871
825.092	243.975
828.929	18.5155
832.764	12.3092
836.598	246.748
840.429	254.965
844.259	193.164
848.088	175.004
851.914	153.524
855.739	250.648
859.562	9.76751
863.383	65.4563
867.203	124.181
871.02	22.7491
874.836	218.092
878.65	264.333
882.463	22.6472
886.274	248.532
890.083	59.2501
893.89	156.718
897.695	139.957
901.499	158.035
905.301	386.427
909.102	328.337
912.9	348.954
916.697	336.262
920.492	149.26
924.285	362.204
928.077	241.526
931.867	473.72
935.655	401.801
939.442	255.748
943.226	255.494
947.009	386.001
950.791	347.616
954.57	91.7844
958.348	254.187
962.124	83.6394
965.899	15.9499
969.671	164.419
973.442	426.477
977.211	579.771
980.979	476.034
984.745	467.933
988.509	2032.51
992.271	5757.95
996.032	3369.75
999.791	754.298
1003.55	563.23
1007.3	527.647
1011.06	419.331
1014.81	448.518
1018.56	552.663
1022.31	580.716
1026.06	392.037
1029.8	431.114
1033.55	623.38
1037.29	745.901
1041.03	1057.88
1044.77	1053.65
1048.5	678.399
1052.24	1194.41
1055.97	1232.18
1059.7	2063.18
1063.43	2033.65
1067.16	1333.81
1070.89	744.046
1074.61	691.114
1078.34	375.098
1082.06	802.915
1085.78	501.526
1089.5	625.892
1093.21	441.461
1096.93	229.602
1100.64	601.709
1104.35	452.109
1108.06	658.407
1111.77	502.957
1115.48	403.274
1119.18	364.26
1122.89	448.009
1126.59	46.0189
1130.29	203.505
1133.99	25.0225
1137.68	62.8469
1141.38	89.4538
1145.07	207.131
1148.76	144.711
1152.45	152.33
1156.14	193.299
1159.83	189.731
1163.51	197.554
1167.19	32.6182
1170.88	154.309
1174.56	166.537
1178.23	166.319
1181.91	4.45511
1185.59	140.83
1189.26	254.657
1192.93	627.779
1196.6	145.21
1200.27	425.913
1203.94	0.224182
1207.6	546.637
1211.27	443.25
1214.93	501.76
1218.59	392.773
1222.25	491.477
1225.9	698.884
1229.56	591.765
1233.21	194.294
1236.86	236.529
1240.51	440.738
1244.16	182.712
1247.81	476.796
1251.45	170.805
1255.1	396.877
1258.74	354.619
1262.38	212.837
1266.02	33.1083
1269.66	399.589
1273.29	249.766
1276.93	154.459
1280.56	104.357
1284.19	24.3352
1287.82	68.614
1291.45	296.347
1295.07	128.76
1298.7	28.026
1302.32	101.056
1305.94	39.5467
1309.56	115.372
1313.18	131.51
1316.8	97.5655
1320.41	219.057
1324.02	391.185
1327.63	214.43
1331.24	593.541
1334.85	561.267
1338.46	1248.33
1342.06	1594.83
1345.67	2883.79
1349.27	3402.7
1352.87	3035.95
1356.47	1858.62
1360.07	1002.59
1363.66	554.751
1367.25	802.476
1370.85	391.102
1374.44	511.764
1378.03	585.43
1381.61	709.051
1385.2	680.21
1388.78	713.485
1392.37	270.368
1395.95	214.594
1399.53	621.493
1403.1	315.145
1406.68	376.005
1410.26	411.08
1413.83	3.82857
1417.4	451.746
1420.97	254.506
1424.54	208.239
1428.1	0
