Measurement: Raman, 532 nm, unoriented, Raman Data Processed
Mineral: Hydroxylapatite
Rruff sample: R050512
Ideal chemistry: Ca_5_(P^5+^O_4_)_3_OH
Locality: Moneta Island, Mayeguez, Puerto Rico, USA
Source: American Museum of Natural History
Description: Pale pink consolidated powder
Measured chemistry: Ca_5.00_(PO_4_)_3_((OH)_0.67_F_0.33_)
Raman shift (cm-1)	intensity
159.387	0
162.279	88.1836
165.172	355.453
168.065	404.098
170.957	393.938
173.85	388.789
176.743	584.758
179.636	702.344
182.528	815.391
185.421	833.84
188.314	786.215
191.206	665.969
194.099	672.531
196.992	520.797
199.884	447.285
202.777	412.465
205.67	474.793
208.562	296.207
211.455	256.055
214.348	357.273
217.241	288.832
220.133	278.219
223.026	139.488
225.919	27.0312
228.811	74.3164
231.704	120.504
234.597	215.555
237.489	119.023
240.382	49.0938
243.275	19.9375
246.168	47.5586
249.06	51.0352
251.953	67.2364
254.846	258.883
257.738	298.09
260.631	256.711
263.524	191.734
266.416	197.004
269.309	86.9922
272.202	28.6133
275.095	98.5312
277.987	344.012
280.88	476.188
283.773	360.461
286.665	337.477
289.558	328.977
292.451	346.543
295.344	206.441
298.236	47.9414
301.129	113.988
304.022	180.328
306.914	45.4961
309.807	55.2188
312.7	108.066
315.592	240.394
318.485	262.488
321.378	72.7305
324.271	127.801
327.163	199.418
330.056	140.312
332.949	29.043
335.841	105.398
338.734	96.1641
341.627	198.492
344.519	70.418
347.412	43.7383
350.305	12.7422
353.197	7.52344
356.09	177.156
358.983	287.641
361.876	237.676
364.768	148.207
367.661	0.905834
370.554	109.75
373.446	85.1094
376.339	39.0977
379.232	235.688
382.125	122.746
385.017	152.727
387.91	139.633
390.803	206.191
393.695	208.289
396.588	144.973
399.481	146.898
402.373	141.426
405.266	280.801
408.159	399.481
411.051	437.457
413.944	427.715
416.837	360.387
419.73	340.648
422.622	546.777
425.515	564.172
428.408	513.801
431.3	489.492
434.193	313.621
437.086	418.637
439.978	376.223
442.871	366.586
445.764	186.223
448.657	347.297
451.549	376.606
454.442	389.016
457.335	196.629
460.227	90.7852
463.12	22.7227
466.013	71.2188
468.906	29.2695
471.798	5.37891
474.691	68.1094
477.584	222.473
480.476	290.832
483.369	217.129
486.262	280.879
489.154	217.027
492.047	156.019
494.94	245.606
497.832	124.762
500.725	80.5625
503.618	33.7383
506.511	45.2344
509.403	32.4922
512.296	154.008
515.189	170.758
518.081	87.7188
520.974	207.875
523.867	222.312
526.76	300.758
529.652	121.914
532.545	13.9844
535.438	203.719
538.33	243.422
541.223	148.75
544.116	150.562
547.008	90.5469
549.901	445.188
552.794	386.266
555.687	341.445
558.579	345.672
561.472	235.672
564.365	324.742
567.257	316.617
570.15	392.93
573.043	315.93
575.935	143.602
578.828	81.3203
581.721	324.758
584.613	198.438
587.506	497.844
590.399	281
593.292	225.211
596.184	293.484
599.077	67.6719
601.97	51.1797
604.862	21.3906
607.755	14.8203
610.648	194.062
613.54	188.82
616.433	33.7188
619.326	158.383
622.218	110.125
625.111	21.8125
628.004	118.711
630.897	185.609
633.789	66.2812
636.682	147.336
639.575	168.422
642.467	146.328
645.36	143.562
648.253	85.4141
651.145	14.7344
654.038	176.539
656.931	287.68
659.824	356.68
662.716	252
665.609	231.859
668.502	151.672
671.394	295.109
674.287	193.516
677.18	14.7266
680.072	38.9688
682.965	221.312
685.858	217.141
688.751	241.688
691.643	293.664
694.536	23.3906
697.429	182.5
700.321	293.43
703.214	237.031
706.107	304.914
709	405.25
711.892	165.32
714.785	127.555
717.678	316.539
720.57	340.047
723.463	277.023
726.356	18.3359
729.248	167.039
732.141	167.484
735.034	204.641
737.927	56.5703
740.819	118.961
743.712	78.8438
746.605	155.242
749.497	39.6328
752.39	97.1875
755.283	140.797
758.175	133.172
761.068	147.555
763.961	204.742
766.854	231.898
769.746	276.336
772.639	372.383
775.532	227.867
778.424	152.555
781.317	116.609
784.21	30.0156
787.102	169.312
789.995	39.1172
792.888	250.344
795.78	320.617
798.673	260.5
801.566	295.852
804.459	220.609
807.351	460.57
810.244	395.617
813.137	343.914
816.029	345.836
818.922	163.188
821.815	215.375
824.707	268.227
827.6	383.961
830.493	313.922
833.386	6.625
836.278	70.4922
839.171	28.0859
842.064	219.312
844.956	111.172
847.849	69.4922
850.742	29.9609
853.635	415.312
856.527	474.148
859.42	242.898
862.313	128.375
865.205	261.891
868.098	264.359
870.991	289.82
873.883	106.578
876.776	137.875
879.669	252.508
882.562	180.859
885.454	180.977
888.347	146.141
891.24	229.398
894.132	172.164
897.025	237.625
899.918	318.969
902.81	405.133
905.703	305.102
908.596	106.82
911.489	50.9766
914.381	170.242
917.274	349.633
920.167	426.297
923.059	258.516
925.952	23.1016
928.845	5.84375
931.737	32.5703
934.63	196.047
937.523	132.875
940.415	380.836
943.308	497.703
946.201	749.656
949.094	855.523
951.986	1087.15
954.879	1664.06
957.772	2630.02
960.664	3226.3
963.557	2491.72
966.45	1201.54
969.342	424.922
972.235	45.4453
975.128	102.406
978.021	264.25
980.913	398.727
983.806	106.297
986.699	113.188
989.591	57.5547
992.484	62.2891
995.377	2.5
998.269	110.578
1001.16	298.688
1004.05	182.75
1006.95	154.828
1009.84	34.2812
1012.73	27.6094
1015.63	50.2344
1018.52	51.0547
1021.41	188.742
1024.3	245.18
1027.2	127.828
1030.09	233.062
1032.98	186.445
1035.88	577.438
1038.77	417.297
1041.66	392.078
1044.55	405.656
1047.44	222.211
1050.34	257.25
1053.23	150.789
1056.12	33.9062
1059.02	97.8281
1061.91	67.8594
1064.8	298.406
1067.69	179.867
1070.59	241.883
1073.48	132.305
1076.37	240.305
1079.27	143.414
1082.16	107.008
1085.05	211.164
1087.94	41.0547
1090.84	79.9922
1093.73	42.1484
1096.62	65.4453
1099.51	43.0703
1102.41	110.906
1105.3	296.391
1108.19	284.125
1111.09	336.641
1113.98	101.906
1116.87	70.9922
1119.76	134.906
1122.66	200.438
1125.55	158.336
1128.44	201.094
1131.33	177.203
1134.23	206.281
1137.12	157.438
1140.01	112.961
1142.9	155.195
1145.8	40.0547
1148.69	17.3984
1151.58	127.203
1154.47	193.641
1157.37	166.039
1160.26	81.6484
1163.15	266.359
1166.05	247.523
1168.94	64.9062
1171.83	105.219
1174.72	59.5781
1177.62	170.258
1180.51	56.25
1183.4	233.281
1186.3	251.383
1189.19	108.078
1192.08	314.867
1194.97	296.203
1197.87	391.555
1200.76	206.023
1203.65	26.4453
1206.54	211.891
1209.44	124.672
1212.33	161.633
1215.22	320.242
1218.12	327.516
1221.01	255.75
1223.9	328.047
1226.79	273.742
1229.68	40.625
1232.58	31.375
1235.47	16.2656
1238.36	36.941
1241.26	177.406
1244.15	307.555
1247.04	396.242
1249.93	335.836
1252.83	104.008
1255.72	89.1875
1258.61	133.625
1261.51	166.07
1264.4	214.234
1267.29	253.336
1270.18	385.312
1273.08	192.906
1275.97	376.117
1278.86	398.875
1281.75	312.352
1284.65	339.586
1287.54	318.875
1290.43	162.953
1293.33	120.438
1296.22	161.93
1299.11	444.656
1302	137.266
