Measurement: Raman, 780 nm, unoriented, Raman Data Processed
Mineral: Hydrotalcite
Rruff sample: R050457
Ideal chemistry: Mg_6_Al_2_CO_3_(OH)_16_(H_2_O)_4_
Locality: Snarum, Norway
Source: University of Arizona Mineral Museum
Description: Pearly-white foliated mass
Measured chemistry: Mg_6.00_(Al_1.60_Fe^3+^_0.40_)_Σ=2_(CO_3_)(OH)_16_·4H_2_O
Raman shift (cm-1)	intensity
188.278	0
191.171	0.045532
194.064	0.359552
196.956	0.389973
199.849	0.24497
202.742	0.428876
205.634	0.163092
208.527	0.531368
211.42	0.627969
214.312	0.808806
217.205	0.623553
220.098	0.918387
222.991	0.881284
225.883	0.937663
228.776	1.14197
231.669	1.59419
234.561	1.75359
237.454	0.876216
240.347	0.919843
243.239	1.36851
246.132	1.35336
249.025	1.3408
251.918	0.374112
254.81	0.399319
257.703	0.760481
260.596	0.151388
263.488	0.304898
266.381	0.023001
269.274	0.045443
272.166	0.22388
275.059	0.059265
277.952	0.419633
280.845	0.037662
283.737	0.25279
286.63	0.46611
289.523	0.784684
292.415	0.283166
295.308	0.490276
298.201	0.599984
301.094	1.09453
303.986	0.718544
306.879	0.650726
309.772	0.339272
312.664	0.194823
315.557	0.073423
318.45	0.518102
321.342	0.396192
324.235	0.389395
327.128	0.259074
330.021	0.346765
332.913	0.299785
335.806	0.21235
338.699	0.291703
341.591	0.027457
344.484	0.054783
347.377	0.26249
350.269	0.315919
353.162	0.003851
356.055	0.41247
358.947	0.207438
361.84	0.087128
364.733	0.419075
367.626	0.296694
370.518	0.266867
373.411	0.469659
376.304	0.548428
379.197	0.297631
382.089	0.870121
384.982	0.504936
387.875	0.218434
390.767	0.326388
393.66	0.296366
396.553	0.099606
399.445	0.139282
402.338	0.06477
405.231	0.036115
408.123	0.042868
411.016	0.040312
413.909	0.200347
416.802	0.259025
419.694	0.059543
422.587	0.012209
425.48	0.029899
428.372	0.372608
431.265	0.540675
434.158	0.657138
437.05	0.866568
439.943	1.08178
442.836	1.35742
445.729	1.8431
448.621	1.87703
451.514	2.21238
454.407	1.53428
457.299	1.73924
460.192	1.89687
463.085	1.77776
465.978	1.96425
468.87	1.83708
471.763	1.40581
474.656	1.30269
477.548	0.855836
480.441	0.241888
483.334	0.056762
486.226	0.098107
489.119	0.135063
492.012	0.025308
494.904	0.115241
497.797	0.032259
500.69	0.328158
503.583	0.282944
506.475	0.673514
509.368	1.16095
512.261	1.31976
515.153	2.15108
518.046	2.67532
520.939	3.65853
523.832	4.40336
526.724	6.12457
529.617	6.57676
532.51	7.28418
535.402	8.08944
538.295	8.50333
541.188	9.35584
544.081	9.61347
546.973	8.67321
549.866	7.44015
552.759	5.48636
555.651	3.54242
558.544	2.86223
561.437	1.41012
564.329	1.3369
567.222	0.976391
570.115	0.316138
573.008	0.138817
575.9	0.40045
578.793	0.529148
581.686	0.010075
584.578	0.030666
587.471	0.0405
590.364	0.062916
593.256	0.176575
596.149	0.092887
599.042	0.150585
601.934	0.349875
604.827	0.035485
607.72	0.175573
610.613	0.223198
613.505	0.041608
616.398	0.516216
619.291	0.889625
622.183	0.249226
625.076	0.726415
627.969	0.708517
630.861	0.52983
633.754	0.589475
636.647	0.009093
639.54	0.349161
642.432	0.060096
645.325	0.167014
648.218	0.307331
651.111	0.32684
654.003	0.575195
656.896	0.152684
659.789	0.433746
662.681	0.697459
665.574	0.307723
668.467	0.243496
671.359	0.068584
674.252	0.207187
677.145	0.175655
680.038	0.056926
682.93	0.656605
685.823	0.705937
688.716	0.705544
691.608	0.907432
694.501	0.38834
697.394	0.555854
700.286	0.432282
703.179	0.451928
706.072	0.031767
708.965	0.676105
711.857	0.349924
714.75	0.045014
717.643	0.504417
720.535	0.020763
723.428	0.069144
726.321	0.234167
729.213	0.345286
732.106	0.311916
734.999	0.018511
737.891	0.148659
740.784	0.104164
743.677	0.056507
746.57	0.07722
749.462	0.012242
752.355	0.18775
755.248	0.185141
758.14	0.179183
761.033	0.27504
763.926	0.439801
766.818	0.327458
769.711	0.23309
772.604	0.532386
775.497	0.068441
778.389	0.168498
781.282	0.00333
784.175	0.206934
787.067	0.062722
789.96	0.009533
792.853	0.086155
795.745	0.262619
798.638	0.328214
801.531	0.298225
804.424	0.184682
807.316	0.159139
810.209	0.351372
813.102	0.414303
815.994	0.487993
818.887	0.071213
821.78	0.183094
824.673	0.15346
827.565	0.18514
830.458	0.345766
833.351	0.534643
836.243	0.359605
839.136	0.911447
842.029	0.500196
844.922	0.056674
847.814	0.648962
850.707	0.554279
853.6	0.19861
856.492	0.30893
859.385	0.27198
862.278	0.303847
865.17	0.275545
868.063	0.382878
870.956	0.19746
873.848	0.629756
876.741	0.467497
879.634	0.130965
882.527	0.027167
885.419	0.263942
888.312	0.316785
891.205	0.028761
894.097	0.161848
896.99	0.273131
899.883	0.056318
902.775	0.152416
905.668	0.004775
908.561	0.024214
911.454	0.001514
914.346	0.252011
917.239	0.175685
920.132	0.118969
923.024	0.153501
925.917	0.347231
928.81	0.096624
931.702	0.189988
934.595	0.215896
937.488	0.222639
940.381	0.231969
943.273	0.384258
946.166	0.231484
949.059	0.023966
951.952	0.070957
954.844	0.054126
957.737	0.098005
960.63	0.030331
963.522	0.309927
966.415	0.029859
969.308	0.11724
972.2	0.221824
975.093	0.49559
977.986	0.747307
980.879	1.96348
983.771	2.65396
986.664	4.09816
989.557	6.51603
992.449	8.52197
995.342	5.3964
998.235	1.84416
1001.13	0.85893
1004.02	0.248812
1006.91	0.16912
1009.8	0.262565
1012.7	0.20141
1015.59	0.391345
1018.48	0.045215
1021.38	0.161589
1024.27	0.391115
1027.16	0.438668
1030.05	0.057719
1032.95	0.217277
1035.84	0.416776
1038.73	0.397277
1041.62	0.489122
1044.52	0.643663
1047.41	1.04804
1050.3	2.15087
1053.2	3.06892
1056.09	3.7887
1058.98	4.52419
1061.87	4.35607
1064.77	2.84596
1067.66	1.35732
1070.55	0.708709
1073.44	0.106455
1076.34	0.120675
1079.23	0.256088
1082.12	0.038252
1085.02	0.247954
1087.91	0.205815
1090.8	0.303595
1093.69	0.23811
1096.59	0.150057
1099.48	0.4743
1102.37	0.361359
1105.27	0.388693
1108.16	0.618577
1111.05	0.003152
1113.94	0.426293
1116.84	0.089626
1119.73	0.147308
1122.62	0.375196
1125.51	0.002871
1128.41	0.0072
1131.3	0.017686
1134.19	0.023818
1137.08	0.003726
1139.98	0.030877
1142.87	0.108197
1145.76	0.375746
1148.65	0.063111
1151.55	0.020016
1154.44	0.207554
1157.33	0.174764
1160.23	0.070261
1163.12	0.056167
1166.01	0.01171
1168.9	0.084009
1171.8	0.179528
1174.69	0.107473
1177.58	0.214185
1180.47	0.477172
1183.37	0.251021
1186.26	0.117151
1189.15	0.114225
1192.05	0.267063
1194.94	0.330904
1197.83	0.298196
1200.72	0.551269
1203.62	0.450983
1206.51	0.751436
1209.4	0.544615
1212.3	0.019848
1215.19	0.304641
1218.08	0.415315
1220.97	0.014764
1223.87	0.227386
1226.76	0.190084
1229.65	0.700448
1232.54	0.28006
1235.44	0.327847
1238.33	0.425445
1241.22	0.005905
1244.11	0.499406
1247.01	0.129594
1249.9	0.30351
1252.79	0.26558
1255.68	0.420825
1258.58	0.560702
1261.47	0.084479
1264.36	0.314193
1267.26	0.373898
1270.15	0.361122
1273.04	0.349417
1275.93	0.325708
1278.83	0.034903
1281.72	0.482758
1284.61	0.13215
1287.51	0
