Measurement: Raman, 785 nm, unoriented, Raman Data Processed
Mineral: Hydrozincite
Rruff sample: R050635
Ideal chemistry: Zn^2+^_5_(CO_3_)_2_(OH)_6_
Locality: Ojuela mine, Mapimi, Durango, Mexico
Source: University of Arizona Mineral Museum
Description: Sample is coated with colorless thin bladed crystals
Measured chemistry: Zn_5.00_(CO_3_)_2_(OH)_6_
Raman shift (cm-1)	intensity
176.821	0
179.714	0.293457
182.606	23.939
185.499	25.7024
188.392	48.477
191.285	62.9663
194.177	89.3103
197.07	94.8323
199.963	85.7156
202.855	89.1352
205.748	53.2493
208.641	76.1519
211.533	90.8147
214.426	106.76
217.319	186.978
220.212	188.296
223.104	201.774
225.997	234.563
228.89	234.26
231.782	239.887
234.675	177.349
237.568	137.627
240.46	81.0142
243.353	78.5901
246.246	36.5403
249.139	48.4976
252.031	32.1865
254.924	51.4985
257.817	0.000977
260.709	32.248
263.602	59.5254
266.495	38.6338
269.387	50.4875
272.28	47.176
275.173	11.6033
278.065	46.8401
280.958	54.3367
283.851	11.7798
286.744	4.39673
289.636	13.6277
292.529	1.71704
295.422	13.4414
298.314	1.93579
301.207	23.0459
304.1	14.9307
306.992	4.53198
309.885	6.77271
312.778	6.91162
315.671	30.1809
318.563	2.86108
321.456	3.85107
324.349	43.6062
327.241	71.9727
330.134	41.4844
333.027	80.4197
335.919	88.4531
338.812	86.9045
341.705	67.1856
344.598	106.859
347.49	85.323
350.383	40.7253
353.276	46.602
356.168	55.0701
359.061	69.2556
361.954	56.5239
364.846	65.2048
367.739	99.7398
370.632	99.1831
373.525	134.889
376.417	177.227
379.31	232.854
382.203	279.514
385.095	382.139
387.988	355.206
390.881	295.477
393.773	173.758
396.666	113.96
399.559	75.7156
402.452	41.4204
405.344	32.1963
408.237	53.1079
411.13	30.8027
414.022	9.30786
416.915	24.1081
419.808	13.3728
422.701	28.6052
425.593	4.96997
428.486	1.23096
431.379	9.32422
434.271	8.32764
437.164	13.2568
440.057	29.7112
442.949	31.2361
445.842	19.0252
448.735	3.85522
451.628	9.26172
454.52	14.3516
457.413	20.1274
460.306	23.3342
463.198	9.94556
466.091	2.78687
468.984	8.32129
471.876	6.90234
474.769	13.9748
477.662	24.4482
480.555	44.0254
483.447	30.3906
486.34	26.9529
489.233	39.5215
492.125	5.80151
495.018	54.7966
497.911	62.4412
500.803	45.2852
503.696	63.6338
506.589	68.6382
509.482	17.8857
512.374	23.1838
515.267	79.8142
518.16	41.7805
521.052	34.0156
523.945	47.2217
526.838	41.6465
529.73	26.5586
532.623	13.9092
535.516	8.59546
538.409	30.5789
541.301	5.93115
544.194	1.03174
547.087	27.4587
549.979	20.0376
552.872	57.7097
555.765	5.4519
558.657	37.157
561.55	37.158
564.443	22.885
567.336	17.7231
570.228	29.0808
573.121	24.0083
576.014	35.2756
578.906	31.7939
581.799	52.7122
584.692	15.1018
587.584	33.9268
590.477	21.3323
593.37	37.0422
596.263	23.9302
599.155	30.3023
602.048	21.9077
604.941	28.6262
607.833	18.7253
610.726	27.1675
613.619	21.2773
616.511	23.0903
619.404	9.41504
622.297	34.6709
625.19	27.5127
628.082	25.2959
630.975	5.68115
633.868	18.0093
636.76	11.9341
639.653	17.8059
642.546	35.0803
645.438	26.1331
648.331	26.374
651.224	1.56567
654.117	26.6128
657.009	13.415
659.902	26.6323
662.795	23.7959
665.687	9.96313
668.58	18.3342
671.473	59.0422
674.365	6.70312
677.258	7.81787
680.151	30.7344
683.044	0.47998
685.936	8.25952
688.829	43.5159
691.722	7.09009
694.614	76.6782
697.507	65.8452
700.4	83.7476
703.292	144.946
706.185	155.828
709.078	157.063
711.971	65.321
714.863	103.737
717.756	120.947
720.649	97.0527
723.541	126.348
726.434	156.693
729.327	215.609
732.219	227.915
735.112	268.162
738.005	260.004
740.898	180.439
743.79	136.672
746.683	87.8645
749.576	50.2483
752.468	48.9004
755.361	55.6531
758.254	68.251
761.146	47.5698
764.039	34.4365
766.932	64.4783
769.825	7.33691
772.717	17.4221
775.61	0.475342
778.503	7.76196
781.395	44.635
784.288	17.5835
787.181	3.8186
790.073	35.1645
792.966	27.1711
795.859	3.72168
798.752	6.39087
801.644	14.6106
804.537	16.2388
807.43	9.91711
810.322	38.4656
813.215	47.5914
816.108	17.757
819	24.0773
821.893	68.1363
824.786	23.429
827.679	4.78833
830.571	32.09
833.464	21.149
836.357	30.2726
839.249	6.36194
842.142	6.77234
845.035	18.8334
847.927	42.9984
850.82	50.9368
853.713	11.0857
856.606	31.6234
859.498	37.035
862.391	0.588989
865.284	13.1576
868.176	14.6969
871.069	38.0017
873.962	5.35742
876.854	10.9916
879.747	38.1816
882.64	32.1489
885.532	13.9916
888.425	43.8092
891.318	16.2766
894.211	33.4423
897.103	40.6703
899.996	25.235
902.889	33.8597
905.781	8.84912
908.674	7.16943
911.567	15.2445
914.459	32.3906
917.352	15.5519
920.245	43.5437
923.138	25.9233
926.03	8.49939
928.923	30.5734
931.816	0.611206
934.708	21.5016
937.601	23.5825
940.494	26.2157
943.386	42.912
946.279	59.2052
949.172	11.5336
952.065	16.5238
954.957	41.9023
957.85	19.4923
960.743	23.484
963.635	54.3091
966.528	1.04773
969.421	19.8389
972.313	13.4545
975.206	52.0321
978.099	57.1578
980.992	28.3315
983.884	53.0369
986.777	56.3176
989.67	5.03711
992.562	36.3669
995.455	25.8131
998.348	27.7948
1001.24	38.6079
1004.13	49.9103
1007.03	22.2809
1009.92	9.86426
1012.81	9.92053
1015.7	1.65857
1018.6	3.12622
1021.49	4.78064
1024.38	27.7745
1027.28	8.83533
1030.17	21.2331
1033.06	32.6855
1035.95	54.4551
1038.85	67.3545
1041.74	88.5576
1044.63	105.095
1047.52	169.533
1050.42	209.475
1053.31	299.881
1056.2	461.933
1059.09	580.799
1061.99	604.366
1064.88	478.068
1067.77	323.674
1070.66	217.142
1073.56	133.09
1076.45	105.092
1079.34	91.875
1082.24	33.8203
1085.13	97.7594
1088.02	63.9207
1090.91	37.4164
1093.81	17.5707
1096.7	48.7052
1099.59	4.88318
1102.48	28.8966
1105.38	13.1908
1108.27	4.83545
1111.16	35.1566
1114.06	21.6168
1116.95	9.97693
1119.84	15.8109
1122.73	23.1829
1125.63	28.9967
1128.52	12.554
1131.41	18.054
1134.31	11.2927
1137.2	30.6813
1140.09	21.9801
1142.98	0.460327
1145.88	9.89966
1148.77	40.7064
1151.66	35.5281
1154.55	33.8403
1157.45	20.7467
1160.34	37.4446
1163.23	5.99146
1166.12	45.0179
1169.02	11.722
1171.91	5.53809
1174.8	13.396
1177.69	24.241
1180.59	14.6443
1183.48	31.0686
1186.37	11.5082
1189.27	42.5065
1192.16	31.6902
1195.05	6.16663
1197.94	12.91
1200.84	36.8296
1203.73	9.01502
1206.62	35.4511
1209.52	4.7655
1212.41	40.5177
1215.3	40.8474
1218.19	2.28003
1221.09	22.8806
1223.98	21.176
1226.87	32.0653
1229.76	59.9634
1232.66	36.2002
1235.55	29.4664
1238.44	15.2952
1241.34	44.0828
1244.23	61.1061
1247.12	25.6326
1250.01	12.1619
1252.9	21.2429
1255.8	1.53064
1258.69	38.0355
1261.58	14.3594
1264.48	38.3848
1267.37	15.173
1270.26	13.3239
1273.15	0
