Measurement: Raman, 532 nm, unoriented, Raman Data Processed
Mineral: Hydroboracite
Rruff sample: R060713
Ideal chemistry: CaMg[B_3_O_4_(OH)_3_]_2_3H_2_O
Locality: Sijes, Salta Province, Argentina
Source: Bob Jenkins
Description: Divergent groups of colorless bladed crystals that lie somewhat parallel with each other
Measured chemistry: (Ca_0.93_Mg_0.07_)_Σ=1_Mg_1.00_B_6_O_8_(OH)_6_·3H_2_O ; B, H not measured but estimated by stoichiometry
Raman shift (cm-1)	intensity
157.199	0
160.092	10.8164
162.985	219.594
165.877	425.738
168.77	329.816
171.663	454.531
174.555	1106.57
177.448	2689.62
180.341	2420.36
183.234	3043.46
186.126	2495.32
189.019	1187.39
191.912	579.953
194.804	785.883
197.697	1163.65
200.59	397.422
203.482	209.254
206.375	283.652
209.268	360.137
212.161	377.488
215.053	788.121
217.946	1146.13
220.839	1108.22
223.731	652.301
226.624	277.941
229.517	491.68
232.41	569.945
235.302	1104
238.195	1953.67
241.088	3857.61
243.98	4440.37
246.873	2631.93
249.766	1395.01
252.658	701.211
255.551	737.738
258.444	1665.66
261.336	1693.51
264.229	973.668
267.122	493.316
270.015	52.7656
272.907	49.1523
275.8	200.746
278.693	158.461
281.585	545.914
284.478	663.18
287.371	480.375
290.263	215.969
293.156	67.1133
296.049	38.0938
298.942	81.9414
301.834	242.731
304.727	758.668
307.62	833.949
310.512	1025.39
313.405	1186.81
316.298	1875.15
319.19	2585.66
322.083	2707.45
324.976	2028.23
327.868	1266.6
330.761	660.723
333.654	597.793
336.547	561.789
339.439	667.488
342.332	449.652
345.225	1.85156
348.117	8.76562
351.01	376.469
353.903	290.797
356.796	1.74609
359.688	22.8086
362.581	90.4805
365.474	81.6367
368.366	140.019
371.259	91.1289
374.152	335.441
377.044	649.172
379.937	738.004
382.83	1045.84
385.723	1666.19
388.615	1758.49
391.508	1676.36
394.401	1243.48
397.293	1275.56
400.186	1773.93
403.079	1900.27
405.971	1257.35
408.864	1280.49
411.757	2028.31
414.65	1837.38
417.542	1644.02
420.435	1202.79
423.328	752.281
426.22	283.012
429.113	138.227
432.006	164.09
434.898	137.324
437.791	148.234
440.684	357.258
443.576	284.449
446.469	338.07
449.362	544.191
452.254	460.707
455.147	904.231
458.04	427.871
460.933	125.055
463.825	41.1719
466.718	153.894
469.611	355.227
472.503	405.727
475.396	491.434
478.289	632.211
481.181	1053.19
484.074	2081.52
486.967	1934.62
489.86	913.078
492.752	407.035
495.645	24.4492
498.538	18.418
501.43	29.0664
504.323	39.293
507.216	84.7539
510.108	311.789
513.001	296.66
515.894	340.023
518.787	771.867
521.679	1003.6
524.572	1426.77
527.465	1980.37
530.357	1071.04
533.25	744.133
536.143	491.66
539.036	512.984
541.928	1030.8
544.821	2003.57
547.714	3894.4
550.606	6409.12
553.499	4279.23
556.392	1576.22
559.284	828.555
562.177	840.086
565.07	1567.56
567.963	1840.51
570.855	1184.42
573.748	501.539
576.641	275.258
579.533	60.5781
582.426	153.531
585.319	102.367
588.211	215.242
591.104	169.773
593.997	204.57
596.89	277.625
599.782	564.836
602.675	1154.23
605.568	1636.63
608.46	1881.8
611.353	1689.89
614.246	1314.02
617.138	970.672
620.031	827.805
622.924	601.445
625.816	680.789
628.709	618.344
631.602	739.695
634.495	1257.56
637.387	2396.23
640.28	2121.37
643.173	996.508
646.065	155.016
648.958	233.148
651.851	340.172
654.743	427.32
657.636	505.836
660.529	422.539
663.422	434
666.314	610.461
669.207	976.922
672.1	952.156
674.992	279.688
677.885	281.055
680.778	104.227
683.67	393.688
686.563	152.633
689.456	328.344
692.349	248.883
695.241	351.656
698.134	141.992
701.027	87.6953
703.919	2.96875
706.812	25.6641
709.705	186.773
712.597	78.4609
715.49	326.992
718.383	242.781
721.276	219.422
724.168	353.516
727.061	322.961
729.954	172.203
732.846	239.32
735.739	302.469
738.632	425.203
741.524	851.352
744.417	1978.11
747.31	3007.49
750.203	3975.88
753.095	5136.61
755.988	6422.29
758.881	5063.99
761.773	2933.66
764.666	1937.15
767.559	1387.23
770.451	951.664
773.344	951.195
776.237	475.641
779.13	289.062
782.022	284.102
784.915	351.227
787.807	396.812
790.7	637.844
793.593	676.125
796.486	542.828
799.378	286.43
802.271	425.172
805.164	493.406
808.056	297.438
810.949	125.086
813.842	224.391
816.734	268.531
819.627	0.195313
822.52	89.5469
825.413	344.547
828.305	571.68
831.198	240.836
834.091	185.297
836.983	457.312
839.876	482.367
842.769	542.039
845.661	606.398
848.554	513.766
851.447	227.727
854.34	36.2344
857.232	211.023
860.125	581.812
863.018	500.469
865.91	634.109
868.803	616.219
871.696	677.219
874.588	1052.69
877.481	843.438
880.374	1012.19
883.266	902.336
886.159	1052.64
889.052	1110.82
891.945	1057.89
894.837	1119.71
897.73	1200.5
900.623	446.43
903.515	404.906
906.408	339.766
909.301	214.992
912.193	18.7812
915.086	175.289
917.979	105.383
920.872	128.633
923.764	685.938
926.657	742.477
929.55	800.008
932.442	746.75
935.335	769.43
938.228	1176.35
941.12	1350.22
944.013	1181.57
946.906	1209.34
949.799	841.656
952.691	755.273
955.584	520.688
958.477	470.445
961.369	624.961
964.262	655.992
967.155	446.672
970.047	384.07
972.94	413.93
975.833	336.148
978.726	525.875
981.618	401.219
984.511	70.2188
987.404	55.3516
990.296	79.375
993.189	17.3125
996.082	134.891
998.974	38.0547
1001.87	199.672
1004.76	450
1007.65	46.1641
1010.54	2.44531
1013.44	259.18
1016.33	349.82
1019.22	55.6875
1022.12	123.883
1025.01	375.195
1027.9	403.789
1030.79	458.383
1033.69	122.977
1036.58	454.625
1039.47	691.586
1042.37	635.719
1045.26	219.375
1048.15	183.984
1051.04	658.93
1053.94	692.719
1056.83	826.992
1059.72	751.953
1062.61	445.812
1065.51	642.773
1068.4	240.219
1071.29	436.539
1074.18	371.281
1077.08	293.414
1079.97	107.195
1082.86	177.844
1085.76	541.055
1088.65	334.805
1091.54	444.055
1094.43	411.883
1097.33	527.07
1100.22	422.203
1103.11	461.641
1106	637.18
1108.9	505.727
1111.79	189.57
1114.68	9.83594
1117.58	57.2422
1120.47	160.227
1123.36	89.6406
1126.25	79.8203
1129.15	685.586
1132.04	680.055
1134.93	593.477
1137.82	600.242
1140.72	748.43
1143.61	424.5
1146.5	309.32
1149.39	262.562
1152.29	308.781
1155.18	563.57
1158.07	414.695
1160.97	315.148
1163.86	265.047
1166.75	63.0391
1169.64	70.4688
1172.54	213.32
1175.43	511.742
1178.32	447.602
1181.21	639.102
1184.11	764.711
1187	476.398
1189.89	219.867
1192.79	232.828
1195.68	82.8203
1198.57	92.5859
1201.46	16.3281
1204.36	0.5625
1207.25	297.727
1210.14	495.734
1213.03	347.328
1215.93	528.148
1218.82	293.891
1221.71	235.688
1224.61	479.766
1227.5	552.914
1230.39	695.859
1233.28	880.125
1236.18	805.367
1239.07	918.531
1241.96	464.953
1244.85	469.188
1247.75	794.516
1250.64	407.062
1253.53	104.406
1256.42	643.852
1259.32	536.688
1262.21	329.297
1265.1	163.328
1267.99	350.57
1270.89	1001.82
1273.78	1201.18
1276.67	997.461
1279.57	347.766
1282.46	581.445
1285.35	179.852
1288.24	284.344
1291.14	120.68
