Measurement: Raman, 785 nm, unoriented, Raman Data Processed
Mineral: Idrialite
Rruff sample: R060466
Ideal chemistry: C_22_H_14_
Locality: Skaggs Springs, Sonoma County, California, USA
Source: Michael Scott
Description: Yellow to yellowish-brown glassy platy fragments
Raman shift (cm-1)	intensity
742.976	0
745.869	349
748.762	979.375
751.654	1085.22
754.547	1520.94
757.44	1147.85
760.333	1462.76
763.225	1277.46
766.118	1997.33
769.011	999.953
771.903	441.891
774.796	572.461
777.689	444.461
780.581	67.305
783.474	356.414
786.367	443.141
789.26	723.703
792.152	358.031
795.045	271.547
797.938	72.656
800.83	273.422
803.723	298.789
806.616	239.641
809.508	590.867
812.401	415.391
815.294	320.688
818.187	777.992
821.079	1882.79
823.972	1387.02
826.865	1125.62
829.757	724.07
832.65	266.984
835.543	377.609
838.435	467.188
841.328	551.5
844.221	467.945
847.114	266.203
850.006	179.391
852.899	169.125
855.792	643.742
858.684	866.695
861.577	1038.73
864.47	1191.41
867.362	632.758
870.255	783.008
873.148	608.445
876.041	237.078
878.933	61.031
881.826	314.023
884.719	399.5
887.611	477.789
890.504	198.883
893.397	80.219
896.289	74.328
899.182	333.578
902.075	498.469
904.968	401.039
907.86	630.125
910.753	333.188
913.646	214.164
916.538	56.531
919.431	68.805
922.324	326.938
925.216	168.062
928.109	151.773
931.002	219.805
933.895	190.906
936.787	660.148
939.68	86.953
942.573	485.32
945.465	497.086
948.358	263.125
951.251	256.086
954.143	211.016
957.036	273.508
959.929	302.375
962.822	406.125
965.714	358.844
968.607	602.828
971.5	76.305
974.392	0.789
977.285	225.656
980.178	232.133
983.07	246.539
985.963	16.789
988.856	30.289
991.749	146.07
994.641	205.219
997.534	618.766
1000.43	571.641
1003.32	804.555
1006.21	1074.34
1009.11	1108.23
1012	1162.09
1014.89	2026.67
1017.78	2549.59
1020.68	2083.06
1023.57	1826.78
1026.46	2208.59
1029.35	2150.73
1032.25	1913.98
1035.14	1404.47
1038.03	587.297
1040.92	547.109
1043.82	405.555
1046.71	57.109
1049.6	321.445
1052.49	422.414
1055.39	415.07
1058.28	157.867
1061.17	26.672
1064.07	313.477
1066.96	69.516
1069.85	370.609
1072.74	705.781
1075.64	430.484
1078.53	375.68
1081.42	112
1084.32	162.172
1087.21	91.781
1090.1	105.742
1092.99	78.43
1095.89	62.188
1098.78	577
1101.67	510.562
1104.56	289.742
1107.46	292.789
1110.35	226.43
1113.24	256.367
1116.13	348.43
1119.03	29.898
1121.92	89.75
1124.81	275.18
1127.71	447.453
1130.6	626.023
1133.49	403.422
1136.38	295.43
1139.28	362.312
1142.17	517.828
1145.06	678.242
1147.95	756.68
1150.85	746.422
1153.74	1209.91
1156.63	777.398
1159.53	422.148
1162.42	588.078
1165.31	316.07
1168.2	4.898
1171.1	26.375
1173.99	133.633
1176.88	270.469
1179.77	520.703
1182.67	360.211
1185.56	432.016
1188.45	622.07
1191.35	730.938
1194.24	715.383
1197.13	890.852
1200.02	557.586
1202.92	414.312
1205.81	220.242
1208.7	260.391
1211.59	23.5
1214.49	3.844
1217.38	33.492
1220.27	130.609
1223.16	354.242
1226.06	356.359
1228.95	329.453
1231.84	283.07
1234.73	235.328
1237.63	37.195
1240.52	170.453
1243.41	649.055
1246.31	367.32
1249.2	516.375
1252.09	425.102
1254.98	297.344
1257.88	280.211
1260.77	503.516
1263.66	644.516
1266.56	744.688
1269.45	737.672
1272.34	811.68
1275.23	360.477
1278.13	217.586
1281.02	277.938
1283.91	159.914
1286.8	349.172
1289.7	251.672
1292.59	300.844
1295.48	368.75
1298.38	287.828
1301.27	439.969
1304.16	211.594
1307.05	87.188
1309.95	249.93
1312.84	230.688
1315.73	48.883
1318.62	8.898
1321.52	342.789
1324.41	659.82
1327.3	859.203
1330.19	1451.39
1333.09	1782.84
1335.98	1655.69
1338.87	1928.97
1341.77	2055.84
1344.66	1820.85
1347.55	1301.7
1350.44	1507.39
1353.34	1353.19
1356.23	1159.3
1359.12	1441.83
1362.01	2030.77
1364.91	2584.02
1367.8	3263.14
1370.69	4347.53
1373.59	5643.69
1376.48	5894.63
1379.37	5549.06
1382.26	2739.75
1385.16	1837.1
1388.05	1245.69
1390.94	1187.12
1393.83	1080.41
1396.73	1932.53
1399.62	1185.77
1402.51	989.094
1405.4	825.008
1408.3	443.945
1411.19	185.039
1414.08	147.273
1416.98	77.75
1419.87	173.672
1422.76	235.875
1425.65	585.039
1428.55	1405.45
1431.44	1573.75
1434.33	1141.88
1437.22	1491.44
1440.12	1224.37
1443.01	1056.41
1445.9	440.875
1448.8	540.078
1451.69	611.914
1454.58	699.25
1457.47	854.008
1460.37	844.836
1463.26	555.57
1466.15	803.18
1469.04	421.93
1471.94	554.281
1474.83	411.727
1477.72	229.469
1480.62	53.578
1483.51	191.055
1486.4	228.828
1489.29	39.609
1492.19	185.453
1495.08	393.641
1497.97	662.109
1500.86	431.297
1503.76	381.758
1506.65	416.195
1509.54	239.789
1512.43	271.5
1515.33	610.859
1518.22	636.992
1521.11	659.188
1524.01	643.199
1526.9	671.633
1529.79	1313.67
1532.68	831.066
1535.58	648.512
1538.47	410.215
1541.36	187.422
1544.25	52.855
1547.15	196.496
1550.04	37.414
1552.93	121.582
1555.83	527.613
1558.72	774.355
1561.61	485.094
1564.5	670.793
1567.4	907.418
1570.29	1277.56
1573.18	2118.26
1576.07	2463.58
1578.97	2071.88
1581.86	1846.98
1584.75	1685.02
1587.64	1261.11
1590.54	1551.39
1593.43	1627.64
1596.32	2446.92
1599.22	2714.23
1602.11	2859.28
1605	3306.77
1607.89	4004.42
1610.79	4286.96
1613.68	4602.94
1616.57	5080
1619.46	5195.1
1622.36	3895.66
1625.25	2743.64
1628.14	2313.5
1631.04	1858.85
1633.93	1730.46
1636.82	1114.65
1639.71	621.73
1642.61	493.699
1645.5	332.918
1648.39	265.355
1651.28	460.551
1654.18	106.266
1657.07	50.695
1659.96	207.164
1662.86	84.129
1665.75	74.629
1668.64	38.559
1671.53	204.246
1674.43	63.613
1677.32	72.797
1680.21	10.238
1683.1	30.828
1686	46.906
1688.89	124.676
1691.78	86.816
1694.67	284.344
1697.57	30.801
1700.46	309.574
1703.35	129.172
1706.25	61.539
1709.14	179.5
1712.03	91.625
1714.92	265.723
1717.82	10.484
1720.71	54.238
1723.6	282.535
1726.49	212.48
1729.39	382.637
1732.28	437.094
1735.17	182.824
1738.07	121.477
1740.96	307.758
1743.85	370.715
1746.74	406.484
1749.64	280.906
1752.53	289.645
1755.42	215.312
1758.31	341.738
1761.21	262.008
1764.1	393.797
1766.99	155.008
1769.88	267.781
1772.78	88.203
1775.67	335.184
1778.56	255.195
1781.46	224.762
1784.35	200.707
1787.24	114.312
1790.13	26.012
1793.03	178.609
