Measurement: Raman, 780 nm, unoriented, Raman Data Processed
Mineral: Ilesite
Rruff sample: R080073
Ideal chemistry: Mn^2+^S^6+^O_4_4H_2_O
Locality: McDonnell claim, Hell's Valley, Park County, Colorado, USA
Source: Michael Scott
Description: Pale greenish granular associated with copiapite and barite
Raman shift (cm-1)	intensity
106.505	0
109.88	20.2573
113.254	5.40234
116.629	39.2163
120.004	14.4873
123.379	28.4111
126.754	2.85644
130.129	54.0259
133.503	60.498
136.878	67.9731
140.253	27.9263
143.628	84.6533
147.003	72.9214
150.377	104.82
153.752	120.641
157.127	139.409
160.502	198.23
163.877	190.304
167.251	199.111
170.626	163.756
174.001	195.167
177.376	155.55
180.751	140.667
184.126	104.92
187.5	145.23
190.875	87.3203
194.25	73.6416
197.625	51.2847
201	52.0425
204.375	64.3281
207.749	79.1187
211.124	72.9917
214.499	102.394
217.874	99.5723
221.249	126
224.623	117.212
227.998	139.41
231.373	86.7998
234.748	65.2305
238.123	44.8023
241.498	19.7046
244.872	13.0078
248.247	4.57227
251.622	11.6221
254.997	36.7749
258.372	42.7183
261.746	35.8086
265.121	50.1738
268.496	66.1475
271.871	92.9233
275.246	112.788
278.62	181.006
281.995	180.635
285.37	223.571
288.745	279.74
292.12	306.843
295.495	283.7
298.869	264.226
302.244	244.609
305.619	236.155
308.994	192.093
312.369	125.224
315.743	119.387
319.118	73.9316
322.493	48.6694
325.868	31.5635
329.243	8.32031
332.618	19.8428
335.992	27.603
339.367	30.6724
342.742	37.9399
346.117	2.3501
349.492	23.9976
352.866	37.3638
356.241	21.5781
359.616	19.772
362.991	9.96435
366.366	23.8164
369.74	29.6089
373.115	71.6221
376.49	3.38916
379.865	16.5137
383.24	1.59814
386.615	15.7988
389.989	4.4082
393.364	8.91992
396.739	13.7305
400.114	15.209
403.489	26.7402
406.863	8.73682
410.238	45.3579
413.613	49.02
416.988	60.5576
420.363	58.456
423.738	86.3486
427.112	111.627
430.487	108.508
433.862	129.732
437.237	139.667
440.612	146.29
443.986	237.73
447.361	232.81
450.736	265.858
454.111	253.093
457.486	304.771
460.861	336.025
464.235	275.513
467.61	188.212
470.985	207.809
474.36	157.753
477.735	118.136
481.109	114.753
484.484	97.334
487.859	123.585
491.234	51.2598
494.609	64.2998
497.983	102.359
501.358	36.7353
504.733	32.0986
508.108	42.6025
511.483	34.208
514.858	19.9517
518.232	46.5557
521.607	11.6567
524.982	31.1392
528.357	38.6443
531.732	20.0852
535.106	15.7698
538.481	28.7231
541.856	26.5706
545.231	8.49829
548.606	22.9507
551.981	11.811
555.355	8.82642
558.73	5.36206
562.105	11.5879
565.48	13.8232
568.855	3.23291
572.23	5.78979
575.604	19.1419
578.979	11.4529
582.354	55.4834
585.729	38.3147
589.104	100.005
592.478	94.238
595.853	85.0713
599.228	70.4844
602.603	92.4875
605.978	35.6069
609.352	47.2639
612.727	41.706
616.102	61.346
619.477	61.5803
622.852	79.2559
626.226	82.1638
629.601	87.2009
632.976	78.001
636.351	96.5147
639.726	96.1841
643.101	69.0173
646.475	44.2595
649.85	54.4861
653.225	23.8791
656.6	48.342
659.975	28.3823
663.35	61.1028
666.724	12.2185
670.099	64.311
673.474	22.1821
676.849	32.2478
680.224	7.37622
683.598	15.895
686.973	8.07275
690.348	25.6916
693.723	28.1179
697.098	47.4241
700.472	13.5027
703.847	4.67578
707.222	2.52197
710.597	29.3928
713.972	7.21777
717.347	38.7336
720.721	26.6834
724.096	0.273193
727.471	5.09326
730.846	6.90894
734.221	16.8796
737.596	6.2417
740.97	18.7017
744.345	45.2895
747.72	19.1128
751.095	16.6357
754.47	18.0276
757.844	29.447
761.219	17.9531
764.594	13.2422
767.969	5.49219
771.344	8.21167
774.718	21.4273
778.093	9.54346
781.468	19.8079
784.843	14.5625
788.218	3.46435
791.592	20.426
794.967	7.32007
798.342	20.9941
801.717	2.03662
805.092	11.5969
808.467	27.512
811.841	51.7554
815.216	39.627
818.591	32.8496
821.966	35.4302
825.341	21.9783
828.716	34.0112
832.09	43.8984
835.465	46.908
838.84	29.416
842.215	22.1916
845.59	34.2571
848.964	45.3298
852.339	27.3135
855.714	26.7864
859.089	36.9985
862.464	15.6865
865.838	33.8257
869.213	48.2322
872.588	37.0393
875.963	53.47
879.338	25.8586
882.713	29.1658
886.087	29.7517
889.462	30.4807
892.837	47.2776
896.212	36.3152
899.587	5.04639
902.962	38.3125
906.336	7.72485
909.711	43.5483
913.086	21.8189
916.461	24.7422
919.836	18.5159
923.21	11.115
926.585	28.5779
929.96	7.06445
933.335	12.2285
936.71	7.83838
940.084	27.1716
943.459	29.9944
946.834	22.4282
950.209	7.13672
953.584	15.699
956.958	2.27881
960.333	33.3289
963.708	38.7827
967.083	33.3025
970.458	11.5207
973.833	1.19067
977.207	5.49902
980.582	30.7336
983.957	19.5945
987.332	15.7302
990.707	55.728
994.082	64.1152
997.456	64.1836
1000.83	86.5923
1004.21	72.4534
1007.58	134.029
1010.96	157.818
1014.33	224.881
1017.71	281.368
1021.08	308.056
1024.45	408.533
1027.83	459.336
1031.2	472.66
1034.58	489.974
1037.95	479.369
1041.33	407.424
1044.7	345.202
1048.08	325.57
1051.45	317.635
1054.83	318.529
1058.2	279.95
1061.58	276.914
1064.95	286.301
1068.33	288.221
1071.7	260.015
1075.08	283.897
1078.45	282.665
1081.83	332.601
1085.2	312.761
1088.58	360.649
1091.95	364.695
1095.33	341.838
1098.7	249.771
1102.08	189.652
1105.45	137.994
1108.83	147.753
1112.2	104.021
1115.58	116.3
1118.95	95.1343
1122.32	70.8208
1125.7	32.2639
1129.07	13.8113
1132.45	6.46509
1135.82	6.61426
1139.2	32.752
1142.57	4.35107
1145.95	40.3938
1149.32	10.9326
1152.7	10.4329
1156.07	29.3528
1159.45	11.2573
1162.82	35.4109
1166.2	29.6643
1169.57	49.4495
1172.95	77.5649
1176.32	55.6743
1179.7	48.7725
1183.07	66.6433
1186.45	56.5981
1189.82	51.6345
1193.2	52.1785
1196.57	97.8274
1199.94	60.6167
1203.32	57.9085
1206.69	62.373
1210.07	12.0808
1213.44	26.7583
1216.82	45.3582
1220.19	20.4055
1223.57	3.90552
1226.94	30.3933
1230.32	54.3892
1233.69	2.92847
1237.07	24.4844
1240.44	26.395
1243.82	24.4998
1247.19	45.3237
1250.57	34.9688
1253.94	29.823
1257.32	43.1011
1260.69	30.5928
1264.07	78.2607
1267.44	57.6426
1270.82	41.3887
1274.19	22.6665
1277.57	36.9707
1280.94	43.977
1284.32	0.663574
