Measurement: Raman, 532 nm, unoriented, Raman Data Processed
Mineral: Ilmenite
Rruff sample: R130214
Ideal chemistry: Fe^2+^Ti^4+^O_3_
Locality: Mont St-Hilaire, Quebec, Canada
Source: Don Doell
Description: Black lustrous tabular crystals
Raman shift (cm-1)	intensity
175.661	0
178.553	0.405746
181.446	1.41201
184.339	3.04796
187.231	3.46067
190.124	3.93355
193.017	4.86341
195.909	4.90903
198.802	5.12352
201.695	4.53815
204.588	5.32879
207.48	4.8637
210.373	4.92039
213.266	4.91369
216.158	6.48005
219.051	6.24606
221.944	6.80462
224.836	8.92803
227.729	8.61147
230.622	9.50411
233.514	6.76715
236.407	5.87999
239.3	4.64088
242.193	4.19341
245.085	5.23481
247.978	4.1077
250.871	3.79412
253.763	3.76557
256.656	2.07507
259.549	2.56215
262.442	1.92907
265.334	2.39314
268.227	0.926079
271.12	0.845526
274.012	0.216671
276.905	0.516973
279.798	0.356478
282.69	0.011646
285.583	0.944452
288.476	0.822855
291.368	0.171774
294.261	0.472301
297.154	0.447201
300.047	0.155594
302.939	0.371269
305.832	1.83908
308.725	0.591484
311.617	2.84773
314.51	2.08067
317.403	3.42806
320.296	4.02501
323.188	5.93297
326.081	6.46954
328.974	6.19271
331.866	7.74748
334.759	6.05565
337.652	5.15514
340.544	4.43724
343.437	3.33935
346.33	3.34714
349.223	3.61677
352.115	2.48663
355.008	2.98223
357.901	2.2594
360.793	2.81219
363.686	4.3064
366.579	4.06599
369.471	2.87868
372.364	1.74876
375.257	1.89618
378.149	1.3779
381.042	0.974211
383.935	0.210712
386.828	0.089689
389.72	0.944784
392.613	1.16444
395.506	0.006643
398.398	0.236181
401.291	0.031033
404.184	0.925404
407.077	0.886679
409.969	0.985699
412.862	1.48453
415.755	0.804161
418.647	0.667006
421.54	2.00229
424.433	0.987219
427.325	1.98478
430.218	1.73801
433.111	2.38841
436.003	2.20545
438.896	2.20061
441.789	2.70098
444.682	1.72835
447.574	2.63175
450.467	2.29734
453.36	2.20109
456.252	2.46339
459.145	2.24427
462.038	1.42316
464.93	1.25898
467.823	1.1531
470.716	1.41924
473.609	1.70634
476.501	1.31172
479.394	0.007267
482.287	0.828041
485.179	1.35446
488.072	0.734814
490.965	0.67235
493.858	0.594604
496.75	0.46979
499.643	1.32046
502.536	0.603102
505.428	0.01907
508.321	0.260267
511.214	0.591669
514.106	0.457041
516.999	0.844446
519.892	0.319008
522.784	0.327457
525.677	0.539013
528.57	0.929293
531.463	1.17811
534.355	0.069769
537.248	0.071579
540.141	0.708395
543.033	0.798439
545.926	1.1911
548.819	0.017244
551.712	0.402138
554.604	0.133127
557.497	0.534403
560.39	0.189941
563.282	0.926823
566.175	1.12604
569.068	0.430729
571.96	1.12233
574.853	0.699684
577.746	0.933748
580.639	1.31103
583.531	1.27024
586.424	2.37922
589.317	2.90222
592.209	2.27679
595.102	1.17982
597.995	0.32206
600.888	1.57551
603.78	1.05793
606.673	1.14377
609.566	1.1475
612.458	0.413
615.351	0.308224
618.244	0.696478
621.136	0.087366
624.029	0.382597
626.922	0.085533
629.814	0.177597
632.707	0.588509
635.6	0.695366
638.493	0.593302
641.385	0.596813
644.278	1.20933
647.171	1.58389
650.063	1.83085
652.956	3.18513
655.849	3.096
658.741	5.13408
661.634	5.3404
664.527	6.91141
667.42	9.1185
670.312	10.7941
673.205	12.5426
676.098	13.2541
678.99	14.1539
681.883	14.4088
684.776	13.351
687.668	10.814
690.561	9.71288
693.454	8.41824
696.347	6.2458
699.239	5.58543
702.132	4.08647
705.025	3.31778
707.917	2.67072
710.81	2.26102
713.703	1.50547
716.596	2.03321
719.488	1.83397
722.381	1.59421
725.274	0.596878
728.166	1.20948
731.059	0.73522
733.952	1.46436
736.844	0.454346
739.737	1.35607
742.63	0.440687
745.523	0.278992
748.415	0.034908
751.308	0.11871
754.201	0.403074
757.093	0.270504
759.986	0.056709
762.879	0.230511
765.771	0.673937
768.664	0.408432
771.557	0.152298
774.449	0.044327
777.342	0.185957
780.235	0.58843
783.128	0.484266
786.02	0.900045
788.913	0.124895
791.806	0.172964
794.698	0.103233
797.591	0.487108
800.484	0.399035
803.376	1.06255
806.269	1.30995
809.162	0.492567
812.055	1.15726
814.947	1.97157
817.84	1.25302
820.733	1.69903
823.625	2.31267
826.518	2.08822
829.411	2.14
832.303	2.32267
835.196	2.89619
838.089	2.44454
840.982	1.80028
843.874	1.76878
846.767	2.46347
849.66	2.12292
852.552	2.87554
855.445	2.5057
858.338	2.8318
861.231	2.20574
864.123	2.52519
867.016	2.19414
869.909	2.0441
872.801	2.02297
875.694	2.71979
878.587	1.78904
881.479	1.99675
884.372	1.16662
887.265	0.252134
890.158	0.95256
893.05	0.864052
895.943	0.682482
898.836	0.530306
901.728	0.424807
904.621	1.22743
907.514	0.304533
910.406	0.328686
913.299	0.502863
916.192	0.562845
919.085	0.0243
921.977	1.01237
924.87	0.97485
927.763	0.939821
930.655	0.286968
933.548	0.177572
936.441	0.964188
939.333	0.369528
942.226	0.32423
945.119	0.325123
948.011	1.28782
950.904	0.933367
953.797	0.793465
956.69	0.227276
959.582	1.2759
962.475	1.29028
965.368	0.200001
968.26	0.119001
971.153	0.406061
974.046	1.19057
976.938	0.742857
979.831	1.54635
982.724	1.17783
985.617	0.689318
988.509	1.87831
991.402	0.841543
994.295	1.50903
997.187	0.514214
1000.08	1.67135
1002.97	0.699802
1005.87	0.617073
1008.76	0.834681
1011.65	0.825552
1014.54	0.384588
1017.44	0.710934
1020.33	1.0806
1023.22	1.03585
1026.11	0.413
1029.01	1.28636
1031.9	1.09376
1034.79	1.4699
1037.68	0.773703
1040.58	1.2945
1043.47	0.578485
1046.36	0.646246
1049.26	1.06891
1052.15	0.947681
1055.04	0.031279
1057.93	0.388824
1060.83	0.313763
1063.72	0.898048
1066.61	0.779251
1069.51	1.60758
1072.4	1.08379
1075.29	0.318638
1078.18	1.46908
1081.08	0.880199
1083.97	0.855418
1086.86	1.37772
1089.75	0.821062
1092.65	1.32409
1095.54	0.421747
1098.43	0.081466
1101.33	0.706647
1104.22	0.733258
1107.11	1.37654
1110	0.549095
1112.89	1.47415
1115.79	0.325931
1118.68	0.296165
1121.57	0.725507
1124.47	0.150086
1127.36	0.126308
1130.25	0.02538
1133.14	0.828213
1136.04	0.975012
1138.93	1.23385
1141.82	0.890483
1144.71	1.08707
1147.61	0.638216
1150.5	0.18474
1153.39	0.374763
1156.29	0.259754
1159.18	1.2904
1162.07	0.555194
1164.96	0.403637
1167.86	0.357109
1170.75	0.683608
1173.64	0.83866
1176.54	0.274807
1179.43	1.27173
1182.32	0.272964
1185.21	0.170383
1188.11	0.458655
1191	0.389713
1193.89	1.1932
1196.78	0.6893
1199.68	0.796408
1202.57	0.181209
1205.46	1.03238
1208.35	0.426914
1211.25	1.03663
1214.14	1.27072
1217.03	1.38847
1219.92	1.13144
1222.82	0.671206
1225.71	1.08268
1228.6	1.89764
1231.5	0.832785
1234.39	0.572701
1237.28	0.805018
1240.17	0.986309
1243.07	0.49756
1245.96	1.05811
1248.85	0.538373
1251.74	1.39878
1254.64	0.914616
1257.53	0.67119
1260.42	1.11886
1263.32	0.2459
1266.21	1.17153
1269.1	1.16199
1271.99	0.962551
1274.89	0.146889
1277.78	0.17249
1280.67	1.05265
1283.57	0.596733
1286.46	1.0969
1289.35	0.9807
1292.24	0.649106
1295.13	0.296486
1298.03	0.619869
1300.92	0.650145
