Measurement: Raman, 532 nm, unoriented, Raman Data Processed
Mineral: Ilsemannite
Rruff sample: R070513
Ideal chemistry: Mo^4+^Mo^6+^_2_O_8_nH_2_O
Locality: Osamu Utsumi Mine, Po√ßos de Caldas, Minas Gerais, Brazil
Source: Michael Scott
Description: Pale blue vitreous coating
Raman shift (cm-1)	intensity
155.459	0
158.351	358.387
161.244	470.819
164.137	248.739
167.029	54.7998
169.922	113.041
172.815	182.318
175.708	237.484
178.6	103.87
181.493	50.7676
184.386	136.336
187.278	43.7432
190.171	175.363
193.064	165.897
195.957	165.911
198.849	141.669
201.742	165.345
204.635	218.555
207.527	193.734
210.42	177.695
213.313	251.622
216.205	189.334
219.098	197.193
221.991	213.315
224.883	343.887
227.776	172.095
230.669	185.885
233.562	163.402
236.454	192.273
239.347	92.6856
242.24	297.598
245.132	312.559
248.025	250.097
250.918	329.995
253.81	258.108
256.703	254.776
259.596	235.432
262.489	157.757
265.381	316.389
268.274	172.339
271.167	136.829
274.059	200.456
276.952	71.6201
279.845	60.0273
282.738	166.179
285.63	85.3457
288.523	106.767
291.416	59.9219
294.308	91.9688
297.201	42.9111
300.094	106.769
302.986	56.0273
305.879	45.3408
308.772	22.4541
311.664	49.2656
314.557	153.334
317.45	230.518
320.343	306.141
323.235	503.416
326.128	555.451
329.021	616.965
331.913	453.56
334.806	398.496
337.699	393.715
340.591	278.17
343.484	160.277
346.377	109.568
349.27	132.725
352.162	142.994
355.055	222.178
357.948	199.807
360.84	150.469
363.733	163.166
366.626	279.615
369.519	111.289
372.411	169.805
375.304	89.3731
378.197	125.361
381.089	103.266
383.982	142.803
386.875	301.34
389.767	200.693
392.66	131.551
395.553	28.6133
398.446	115.621
401.338	2.9082
404.231	0.943359
407.124	82.0996
410.016	148.516
412.909	162.836
415.802	157.385
418.695	165.172
421.587	165.742
424.48	192.648
427.373	137.434
430.265	7.94141
433.158	62.3848
436.051	154.65
438.943	35.2109
441.836	141.088
444.729	119.719
447.622	178.787
450.514	172.103
453.407	169.373
456.3	118.635
459.192	142.273
462.085	172.139
464.978	130.623
467.87	87.9785
470.763	99.6641
473.656	2.51953
476.548	22.8965
479.441	23.4121
482.334	85.6894
485.227	62.6445
488.119	81.4688
491.012	74.5996
493.905	30.9414
496.797	56.0957
499.69	37.1895
502.583	28.9023
505.476	27.752
508.368	64.6074
511.261	103.781
514.154	193.586
517.046	94.6113
519.939	25
522.832	139.057
525.724	153.857
528.617	173.533
531.51	238.977
534.403	222.938
537.295	343.635
540.188	247.42
543.081	346.457
545.973	346.43
548.866	288.959
551.759	169.264
554.651	8.89648
557.544	45.834
560.437	109.119
563.33	58.8848
566.222	12.5859
569.115	83.5254
572.008	35.5684
574.9	3.56445
577.793	58.3477
580.686	119.162
583.578	7.78125
586.471	46.4648
589.364	35.1289
592.256	23.0312
595.149	128.275
598.042	129.93
600.935	37.9961
603.827	283.662
606.72	141.031
609.613	185.197
612.505	250.484
615.398	116.924
618.291	145.424
621.183	24.6797
624.076	46.1211
626.969	41.6855
629.862	206.967
632.754	102.545
635.647	8.01172
638.54	28.3027
641.432	69.0938
644.325	106.6
647.218	30.3711
650.111	115.045
653.003	74.8769
655.896	74.4961
658.789	68.043
661.681	136.199
664.574	143.594
667.467	110.519
670.36	178.435
673.252	116.314
676.145	121.232
679.038	99.0938
681.93	102.115
684.823	76.1934
687.716	90.7402
690.608	170.535
693.501	69.1172
696.394	19.4961
699.287	130.566
702.179	120.184
705.072	142.076
707.965	121.043
710.857	59.0508
713.75	2.41406
716.643	220.701
719.535	68.3242
722.428	20.2363
725.321	58.2871
728.213	51.7207
731.106	59.9688
733.999	140.023
736.892	18.041
739.784	125.519
742.677	220.475
745.57	124.803
748.462	292.139
751.355	163.844
754.248	80.8027
757.14	178.42
760.033	158.746
762.926	125.168
765.819	96.3457
768.711	90.4512
771.604	32.8965
774.497	25.0391
777.389	56.9824
780.282	38.4824
783.175	116.647
786.067	146.853
788.96	145.959
791.853	89.4961
794.746	43.2695
797.638	31.9629
800.531	8.09375
803.424	124.887
806.316	195.297
809.209	80.1777
812.102	26.8652
814.995	157.941
817.887	45.2168
820.78	77.6055
823.673	229.481
826.565	358.156
829.458	257.578
832.351	96.6875
835.244	192.67
838.136	119.293
841.029	186.498
843.922	203.81
846.814	265.815
849.707	97.6035
852.6	235.248
855.492	147.492
858.385	136.117
861.278	215.926
864.17	298.894
867.063	333.252
869.956	224.832
872.849	197.26
875.741	311.035
878.634	210.914
881.527	200.277
884.419	152.639
887.312	230.682
890.205	170.225
893.097	293.082
895.99	252.947
898.883	175.955
901.776	185.893
904.668	359.986
907.561	320.859
910.454	356.488
913.346	219.168
916.239	320.322
919.132	258.818
922.024	259.473
924.917	190.412
927.81	187.797
930.703	196.166
933.595	204.174
936.488	163.111
939.381	138.725
942.273	186.967
945.166	124.893
948.059	45.2754
950.952	25.7812
953.844	111.207
956.737	11.7871
959.63	67.4629
962.522	30.2715
965.415	18.0469
968.308	88.4531
971.2	109.5
974.093	79.8418
976.986	111.678
979.879	149.391
982.771	115.072
985.664	79.1094
988.557	116.533
991.449	151.842
994.342	51.6094
997.235	58.5762
1000.13	10.1582
1003.02	46.0195
1005.91	85.332
1008.81	106.664
1011.7	192.391
1014.59	137.996
1017.48	102.357
1020.38	33.6426
1023.27	48.5723
1026.16	225.365
1029.05	183.502
1031.95	304.584
1034.84	234.465
1037.73	131.449
1040.62	47.9219
1043.52	4.08984
1046.41	138.129
1049.3	164.059
1052.2	106.176
1055.09	76.1406
1057.98	49.7227
1060.87	124.375
1063.77	221.607
1066.66	261.676
1069.55	254.449
1072.44	107.328
1075.34	135.75
1078.23	211.832
1081.12	189.904
1084.02	64.0059
1086.91	20.3418
1089.8	18.3691
1092.69	143.266
1095.59	6.7168
1098.48	99.832
1101.37	129.805
1104.27	87.0273
1107.16	31.0176
1110.05	14.1523
1112.94	78.5078
1115.84	108.18
1118.73	61.4863
1121.62	38.1914
1124.51	46.6836
1127.41	15.377
1130.3	61.8926
1133.19	23.2754
1136.08	132.787
1138.98	74.1328
1141.87	150.57
1144.76	54.1035
1147.65	65.7383
1150.55	134.141
1153.44	93.7246
1156.33	183.869
1159.23	81.0879
1162.12	48.2461
1165.01	82.4668
1167.9	20.7949
1170.8	60.457
1173.69	155.35
1176.58	208.531
1179.47	273.422
1182.37	225.836
1185.26	123.041
1188.15	121.977
1191.05	222.371
1193.94	144.539
1196.83	99.8555
1199.72	138.262
1202.62	85.0508
1205.51	18.2793
1208.4	22.1641
1211.3	3.88867
1214.19	93.9004
1217.08	166.26
1219.97	273.535
1222.87	373.299
1225.76	342.744
1228.65	103.303
1231.54	105.533
1234.44	103.947
1237.33	143.387
1240.22	88.7266
1243.11	11.543
1246.01	41.418
1248.9	63.9102
1251.79	54.9551
1254.68	81.9922
1257.58	0.712891
1260.47	45.4727
1263.36	145.508
1266.26	112.748
1269.15	0
