Measurement: Raman, 785 nm, unoriented, Raman Data Processed
Mineral: Ilsemannite
Rruff sample: R070513
Ideal chemistry: Mo^4+^Mo^6+^_2_O_8_nH_2_O
Locality: Osamu Utsumi Mine, Po√ßos de Caldas, Minas Gerais, Brazil
Source: Michael Scott
Description: Pale blue vitreous coating
Raman shift (cm-1)	intensity
159.005	0
161.898	728.535
164.79	1268.51
167.683	1356.41
170.576	576.748
173.468	240.894
176.361	120.449
179.254	260.723
182.146	358.981
185.039	637.914
187.932	506.348
190.825	477.348
193.717	528.066
196.61	475.668
199.503	549.816
202.395	763.547
205.288	758.934
208.181	674.281
211.073	767.16
213.966	966.863
216.859	1025.19
219.751	1016.78
222.644	1055.77
225.537	942.277
228.43	690.281
231.322	653.971
234.215	671.529
237.108	703.027
240	783.086
242.893	613.521
245.786	528.856
248.679	436.272
251.571	377.641
254.464	360.697
257.357	366.414
260.249	411.326
263.142	232.85
266.035	205.785
268.927	125.025
271.82	46.0117
274.713	33.0332
277.606	148.043
280.498	17.873
283.391	17.8125
286.284	90.3496
289.176	47.0195
292.069	60.4648
294.962	26.6875
297.854	98.8672
300.747	222.715
303.64	400.06
306.533	641.252
309.425	978.402
312.318	1258.43
315.211	1612.59
318.103	1979.65
320.996	2467.84
323.889	3031.87
326.781	3452.38
329.674	3471.88
332.567	3240.6
335.459	2901.67
338.352	2381.43
341.245	1839.84
344.137	1333.52
347.03	931.588
349.923	660.227
352.816	639.854
355.708	466.394
358.601	486.82
361.494	509.488
364.386	324.277
367.279	352.998
370.172	290.922
373.065	104.787
375.957	199.625
378.85	138.453
381.743	40.793
384.635	146.758
387.528	124.082
390.421	88.6894
393.313	138.082
396.206	2.73633
399.099	71.9121
401.991	126.992
404.884	17.0918
407.777	10.9434
410.67	67.7754
413.562	73.0566
416.455	23.3613
419.348	348.393
422.24	149.969
425.133	257.06
428.026	314.877
430.918	430.217
433.811	694.57
436.704	799.092
439.597	1121.48
442.489	1112.96
445.382	1387.23
448.275	1375.38
451.167	1521.44
454.06	1406.79
456.953	1289.78
459.846	1287.27
462.738	1015.64
465.631	929.391
468.524	706.031
471.416	616.738
474.309	404.988
477.202	497.731
480.094	522.025
482.987	389.141
485.88	403.475
488.773	323.981
491.665	154.935
494.558	163.365
497.451	44.7988
500.343	32.1699
503.236	139.022
506.129	66.3848
509.022	218.469
511.914	125.732
514.807	26.9277
517.7	30.7129
520.592	6.82227
523.485	41.8496
526.378	34.7715
529.27	104.432
532.163	102.762
535.056	222.738
537.948	74.5664
540.841	210.592
543.734	95.9688
546.627	18.7656
549.519	82.1172
552.412	78.4062
555.305	162.342
558.197	34.2676
561.09	46.0898
563.983	76.5059
566.875	53.3516
569.768	25.5859
572.661	24.4629
575.554	37.4805
578.446	74.8027
581.339	92.9785
584.232	15.916
587.124	23.2207
590.017	95.5508
592.91	76.6348
595.802	100.283
598.695	204.701
601.588	234.35
604.481	148.385
607.373	231.19
610.266	73.4941
613.159	51.0859
616.051	112.07
618.944	80.2148
621.837	164.637
624.729	125.338
627.622	247.359
630.515	199.107
633.408	279.42
636.3	240.637
639.193	201.443
642.086	149.674
644.978	192.184
647.871	237.178
650.764	255.791
653.656	195.109
656.549	122.844
659.442	140.69
662.335	259.106
665.227	243.035
668.12	182.338
671.013	186.9
673.905	97.25
676.798	20.1348
679.691	105.953
682.583	44.5391
685.476	63.8594
688.369	130.281
691.261	8.75195
694.154	76.4434
697.047	91.4941
699.94	32.9238
702.832	59.6289
705.725	49.332
708.618	63.8301
711.51	26.6387
714.403	40.666
717.296	98.5977
720.188	71.5098
723.081	34.4902
725.974	89.5254
728.867	57.791
731.759	14.6309
734.652	161.807
737.545	71.0039
740.437	226.16
743.33	74.7246
746.223	116.727
749.115	32.1309
752.008	106.018
754.901	117.772
757.794	190.008
760.686	158.871
763.579	173.006
766.472	40.4805
769.364	147.312
772.257	3.28906
775.15	144.297
778.043	166.56
780.935	183.402
783.828	188.484
786.721	189.897
789.613	198.846
792.506	235.518
795.399	302.969
798.291	363.182
801.184	440.049
804.077	509.654
806.97	581.338
809.862	752.092
812.755	733.607
815.648	805.984
818.54	870.451
821.433	969.408
824.326	910.648
827.218	982.059
830.111	1068.52
833.004	923.371
835.896	861.33
838.789	740.939
841.682	690.031
844.575	576.119
847.467	570.809
850.36	589.162
853.253	382.076
856.145	406.772
859.038	340.906
861.931	315.014
864.823	332.211
867.716	265.662
870.609	202.916
873.502	64.8535
876.394	100.281
879.287	61.8477
882.18	80.6562
885.072	52.793
887.965	100.42
890.858	25.6602
893.75	62.4043
896.643	10.502
899.536	17.0078
902.429	7.75586
905.321	65.3281
908.214	30.9277
911.107	22.8809
914	45.4277
916.892	69.9785
919.785	87.1934
922.678	90.8379
925.57	139.824
928.463	155.688
931.356	220.76
934.248	214.047
937.141	348.041
940.034	350.516
942.927	411.121
945.819	344.184
948.712	391.09
951.605	443.19
954.497	504.039
957.39	405.578
960.283	326.268
963.175	371.606
966.068	349.672
968.961	255.764
971.854	56.6973
974.746	175.424
977.639	190.365
980.532	67.8711
983.424	140.519
986.317	118.377
989.21	5.03711
992.102	39.9473
994.995	32.8574
997.888	10.8438
1000.78	25.6387
1003.67	120.894
1006.57	56.0742
1009.46	143.033
1012.35	143.535
1015.24	118.078
1018.14	166.914
1021.03	207.691
1023.92	185.334
1026.82	236.932
1029.71	306.34
1032.6	259.793
1035.49	211.555
1038.39	179.945
1041.28	195.615
1044.17	186.059
1047.06	251.363
1049.96	219.086
1052.85	109.639
1055.74	223.727
1058.63	209.935
1061.53	158.221
1064.42	132.26
1067.31	151.535
1070.2	117.562
1073.1	128.078
1075.99	110.51
1078.88	178.576
1081.78	28.7188
1084.67	40.1992
1087.56	17.1289
1090.45	51.5996
1093.35	4.32812
1096.24	50.1934
1099.13	75.0606
1102.03	53.9883
1104.92	114.562
1107.81	155.223
1110.7	87.5273
1113.6	103.709
1116.49	45.5469
1119.38	138.658
1122.27	94.5644
1125.17	76.4102
1128.06	72.3223
1130.95	181.572
1133.85	73.4394
1136.74	140.049
1139.63	99.2285
1142.52	134.238
1145.41	58.6152
1148.31	107.947
1151.2	3.29688
1154.09	17.6504
1156.99	20.3613
1159.88	108.787
1162.77	93.4277
1165.66	74.3281
1168.56	167.129
1171.45	156.539
1174.34	50.0996
1177.23	107.178
1180.13	69.1758
1183.02	45.2969
1185.91	49.6035
1188.81	134.518
1191.7	40.9434
1194.59	75.5156
1197.48	118.684
1200.38	101.061
1203.27	132.641
1206.16	200.045
1209.06	217.324
1211.95	262.506
1214.84	187.197
1217.73	207.752
1220.63	157.242
1223.52	149.246
1226.41	113.574
1229.3	67.2285
1232.2	160.902
1235.09	105.121
1237.98	141.607
1240.88	123.68
1243.77	58.6426
1246.66	79.375
1249.55	13.9043
1252.44	81.0078
1255.34	95.0254
1258.23	64.2656
1261.12	1.45117
