Measurement: Raman, 780 nm, unoriented, Raman Data Processed
Mineral: Ilvaite
Rruff sample: R060474
Ideal chemistry: CaFe^2+^_2_Fe^3+^OSi_2_O_7_(OH)
Locality: Dal 'Negorsk, Primorskiy, Kray, Russia
Source: Michael Scott
Description: Steel gray prismatic crystal
Measured chemistry: Ca_1.00_(Fe^2+^_1.29_Mn_0.71_)_Σ=2_(Fe^3+^_0.93_Al_0.07_)_Σ=1_OSi_2.00_O_7_(OH); trace amounts of Mg; OH estimated by charge balance
Raman shift (cm-1)	intensity
130.655	0
133.548	0.526428
136.44	4.60138
139.333	5.91098
142.226	9.70999
145.119	13.4645
148.011	19.0923
150.904	23.9473
153.797	28.8836
156.689	27.2702
159.582	23.5965
162.475	21.473
165.367	17.0769
168.26	9.67867
171.153	3.55606
174.046	0.374115
176.938	0.977844
179.831	0.671844
182.724	0.37886
185.616	1.10863
188.509	4.20625
191.402	4.87089
194.294	4.7214
197.187	4.56155
200.08	4.806
202.972	6.34305
205.865	4.84816
208.758	6.29047
211.651	7.12363
214.543	9.56732
217.436	12.7686
220.329	11.2415
223.221	15.1628
226.114	16.7977
229.007	14.2972
231.899	14.3593
234.792	12.7071
237.685	9.2574
240.578	7.65233
243.47	6.09686
246.363	6.03226
249.256	8.15382
252.148	9.43906
255.041	9.20262
257.934	14.8007
260.827	15.2227
263.719	17.8799
266.612	18.2017
269.505	21.4592
272.397	18.5755
275.29	19.5132
278.183	15.6156
281.075	11.5535
283.968	8.21648
286.861	5.91888
289.753	3.62972
292.646	2.08061
295.539	3.0162
298.432	1.02438
301.324	1.07382
304.217	0.591866
307.11	0.147163
310.002	0.235405
312.895	0.968719
315.788	0.280937
318.68	1.06971
321.573	1.66788
324.466	2.74954
327.359	0.839706
330.251	3.45621
333.144	2.70335
336.037	1.00247
338.929	1.96678
341.822	2.61387
344.715	2.92446
347.608	1.98507
350.5	1.71047
353.393	1.78413
356.286	2.09078
359.178	0.885796
362.071	0.771347
364.964	2.12195
367.856	0.317024
370.749	1.96437
373.642	0.678642
376.534	0.252068
379.427	1.34794
382.32	0.552132
385.213	1.32812
388.105	1.01087
390.998	0.447479
393.891	2.04883
396.783	0.03968
399.676	1.39452
402.569	2.61285
405.462	0.948425
408.354	0.667824
411.247	1.70371
414.14	1.76185
417.032	1.9529
419.925	1.87094
422.818	3.33415
425.71	1.90109
428.603	2.07915
431.496	1.13865
434.389	1.36726
437.281	1.04822
440.174	1.60554
443.067	2.06197
445.959	2.05836
448.852	2.0517
451.745	0.537277
454.637	2.84477
457.53	2.22749
460.423	0.805626
463.315	2.70178
466.208	1.56096
469.101	1.32866
471.994	1.3253
474.886	3.37545
477.779	1.94207
480.672	0.933441
483.564	2.10938
486.457	1.78673
489.35	1.99204
492.243	4.3852
495.135	0.279877
498.028	1.78094
500.921	2.24351
503.813	1.9686
506.706	2.80161
509.599	3.31731
512.491	2.00503
515.384	2.10285
518.277	2.79384
521.169	2.40299
524.062	1.5659
526.955	2.50963
529.848	1.10143
532.74	1.56401
535.633	2.57653
538.526	1.66005
541.418	0.70829
544.311	0.488815
547.204	0.810478
550.096	0.257538
552.989	1.19363
555.882	1.41952
558.775	2.48032
561.667	0.51812
564.56	0.257401
567.453	1.4339
570.345	0.923233
573.238	1.28393
576.131	0.038841
579.024	0.796043
581.916	2.66219
584.809	1.0342
587.702	0.292419
590.594	0.335777
593.487	1.20831
596.38	1.80693
599.272	2.83121
602.165	2.96072
605.058	2.01614
607.951	0.832176
610.843	1.76856
613.736	1.76859
616.629	0.277794
619.521	0.153702
622.414	3.26328
625.307	1.5789
628.199	2.54509
631.092	1.64333
633.985	2.78818
636.878	2.28958
639.77	3.31699
642.663	1.42851
645.556	1.49463
648.448	2.72697
651.341	0.98494
654.234	1.70157
657.126	0.186852
660.019	3.4498
662.912	3.41718
665.804	1.0665
668.697	1.22268
671.59	1.16935
674.483	0.045837
677.375	0.180328
680.268	0.819023
683.161	3.82008
686.053	1.39175
688.946	3.98074
691.839	3.85788
694.731	2.79518
697.624	4.63567
700.517	2.70293
703.41	1.74626
706.302	1.57363
709.195	2.74037
712.088	2.55642
714.98	1.42098
717.873	1.82136
720.766	2.09878
723.659	0.568375
726.551	0.903648
729.444	1.61108
732.337	2.7557
735.229	1.82889
738.122	1.87898
741.015	1.60133
743.907	0.120262
746.8	1.15137
749.693	0.986076
752.586	1.28394
755.478	0.37397
758.371	1.59591
761.264	0.089867
764.156	1.95136
767.049	2.2763
769.942	2.1309
772.834	0.345909
775.727	1.64267
778.62	3.18452
781.513	3.16386
784.405	1.82648
787.298	1.43218
790.191	0.406494
793.083	0.497147
795.976	1.08394
798.869	1.42522
801.761	1.63467
804.654	1.98943
807.547	3.46991
810.439	3.6997
813.332	1.3053
816.225	0.010704
819.118	0.843338
822.01	3.40864
824.903	0.942802
827.796	0.816025
830.688	2.41738
833.581	0.827034
836.474	1.45708
839.366	1.68333
842.259	1.50963
845.152	1.04772
848.045	1.36664
850.937	1.33465
853.83	2.41824
856.723	0.348839
859.615	2.28021
862.508	0.201752
865.401	1.36134
868.293	1.71915
871.186	2.96572
874.079	1.51211
876.972	0.579071
879.864	2.12914
882.757	2.50526
885.65	2.56168
888.542	0.937386
891.435	2.30614
894.328	2.99631
897.221	0.533638
900.113	1.76766
903.006	1.45553
905.899	1.26112
908.791	1.32092
911.684	1.4446
914.577	0.311516
917.469	1.26944
920.362	0.639042
923.255	1.40441
926.148	2.34057
929.04	0.897659
931.933	0.755554
934.826	0.202827
937.718	3.37197
940.611	0.864704
943.504	1.75456
946.396	0.276409
949.289	0.763683
952.182	2.21072
955.074	1.45306
957.967	2.07694
960.86	2.80434
963.753	4.21748
966.645	0.913391
969.538	1.5589
972.431	0.774857
975.323	1.40934
978.216	0.50288
981.109	1.20403
984.001	1.55567
986.894	2.17313
989.787	2.90995
992.68	2.21639
995.572	0.116753
998.465	0.804802
1001.36	2.87115
1004.25	1.44114
1007.14	1.49425
1010.04	1.43786
1012.93	1.43136
1015.82	1.50933
1018.71	0.430195
1021.61	1.83968
1024.5	0.976715
1027.39	0.873859
1030.29	1.3124
1033.18	1.1152
1036.07	3.76379
1038.96	1.48954
1041.86	2.50442
1044.75	1.8426
1047.64	2.23926
1050.53	2.42402
1053.43	0.965015
1056.32	1.511
1059.21	0.861652
1062.1	0.532063
1065	1.39194
1067.89	2.38379
1070.78	2.85451
1073.67	3.44284
1076.57	2.85939
1079.46	1.42641
1082.35	0.999863
1085.25	2.76138
1088.14	1.01266
1091.03	1.57113
1093.92	1.16756
1096.82	2.46876
1099.71	2.34727
1102.6	1.14618
1105.49	1.84592
1108.39	1.89112
1111.28	3.22121
1114.17	2.59213
1117.07	2.36243
1119.96	2.85161
1122.85	2.32955
1125.74	1.5573
1128.64	1.85253
1131.53	2.2126
1134.42	1.62715
1137.32	0.615902
1140.21	2.90815
1143.1	0.788258
1145.99	0.670223
1148.88	2.00222
1151.78	0.936951
1154.67	0.355499
1157.56	1.8065
1160.46	1.80973
1163.35	2.53639
1166.24	1.70759
1169.13	3.16419
1172.03	1.1198
1174.92	2.73072
1177.81	2.6382
1180.7	1.48793
1183.6	0.750149
1186.49	1.91953
1189.38	3.02556
1192.28	1.71008
1195.17	2.81825
1198.06	2.08375
1200.95	2.92118
1203.85	2.4478
1206.74	2.34376
1209.63	2.41247
1212.53	0.715004
1215.42	3.72874
1218.31	1.74527
1221.2	0.189312
1224.1	2.10238
1226.99	3.296
1229.88	3.04259
1232.77	1.31215
1235.67	2.40841
1238.56	3.7242
1241.45	0.813568
1244.34	1.36464
1247.24	0.633602
1250.13	3.32912
1253.02	5.26821
1255.91	2.9049
1258.81	2.65212
1261.7	2.33685
1264.59	1.90445
1267.49	0.868958
1270.38	4.85064
1273.27	3.32482
1276.16	4.56412
1279.06	1.89478
1281.95	1.25578
1284.84	0.324501
