Measurement: Raman, 780 nm, unoriented, Raman Data Processed
Mineral: Ilvaite
Rruff sample: R050040
Ideal chemistry: CaFe^2+^_2_Fe^3+^OSi_2_O_7_(OH)
Locality: Capo Calamita, Isle of Elba, Italy
Source: University of Arizona Mineral Museum
Description: Brown fragment
Measured chemistry: Ca_1.00_(Fe^2+^_1.89_Mn_0.10_Mg_0.01_)_Î£=2_Fe^3+^_1.00_OSi_2.00_O_7_(OH); trace amounts of Al; OH estimated by charge balance
Raman shift (cm-1)	intensity
107.591	0
110.966	2.7001
114.341	8.6178
117.716	8.46735
121.091	9.86881
124.466	7.51309
127.84	4.46582
131.215	4.58231
134.59	0.189697
137.965	1.43005
141.34	2.4653
144.714	1.72531
148.089	4.49655
151.464	3.27737
154.839	2.31418
158.214	2.76495
161.589	2.07712
164.963	0.954346
168.338	0.986725
171.713	0.787476
175.088	0.173462
178.463	1.8371
181.838	4.40665
185.212	8.26468
188.587	10.5698
191.962	13.1461
195.337	12.6223
198.712	9.37225
202.086	9.05408
205.461	8.45801
208.836	9.13704
212.211	10.5285
215.586	9.63188
218.96	10.0448
222.335	10.6075
225.71	9.4955
229.085	6.22501
232.46	4.17488
235.834	2.9434
239.209	0.996979
242.584	2.05708
245.959	0.498566
249.334	0.446625
252.709	0.575607
256.083	0.627289
259.458	1.65799
262.833	1.92781
266.208	3.35365
269.583	4.67236
272.957	4.62266
276.332	5.59947
279.707	4.79423
283.082	2.55926
286.457	3.634
289.832	2.77464
293.206	3.01802
296.581	1.15195
299.956	1.69553
303.331	0.841354
306.706	2.65343
310.08	3.34456
313.455	3.90016
316.83	4.37076
320.205	5.20583
323.58	6.97063
326.954	7.82742
330.329	8.6532
333.704	7.41261
337.079	6.42519
340.454	5.98265
343.829	5.52637
347.203	5.40189
350.578	2.72609
353.953	1.85049
357.328	2.90324
360.703	2.98498
364.077	1.33665
367.452	1.35336
370.827	1.10957
374.202	0.135406
377.577	0.051941
380.952	0.34845
384.326	0.624008
387.701	0.289825
391.076	0.868103
394.451	0.38913
397.826	0.914551
401.2	0.21875
404.575	0.810944
407.95	1.43408
411.325	1.67362
414.7	3.08156
418.075	1.95256
421.449	2.34482
424.824	1.60614
428.199	1.14444
431.574	1.9212
434.949	2.13799
438.323	1.82507
441.698	1.75224
445.073	1.42897
448.448	1.05576
451.823	1.61437
455.197	1.88654
458.572	1.03044
461.947	1.32709
465.322	1.26144
468.697	2.6951
472.072	0.715729
475.446	1.88472
478.821	1.70258
482.196	1.6321
485.571	2.41805
488.946	3.38916
492.32	1.94548
495.695	4.5407
499.07	3.60197
502.445	1.8681
505.82	2.74976
509.195	1.7196
512.569	2.30662
515.944	1.59482
519.319	1.48436
522.694	1.0581
526.068	1.97028
529.443	1.46314
532.818	0.602646
536.193	1.48771
539.568	0.739899
542.943	1.70628
546.317	0.794334
549.692	0.143425
553.067	0.590324
556.442	0.540215
559.817	0.798363
563.192	1.206
566.566	1.17451
569.941	1.10381
573.316	0.605217
576.691	1.76599
580.066	3.09382
583.44	2.3222
586.815	3.0495
590.19	3.07673
593.565	2.14623
596.94	3.63708
600.314	1.55444
603.689	2.97868
607.064	2.29399
610.439	2.07674
613.814	2.18623
617.188	2.74316
620.563	1.12167
623.938	0.490303
627.313	1.0459
630.688	0.774559
634.063	0.632156
637.437	0.730263
640.812	0.549721
644.187	0.453178
647.562	1.26372
650.937	0.989182
654.312	0.432846
657.686	0.855225
661.061	0.844345
664.436	0.163055
667.811	0.835335
671.186	0.598854
674.56	1.26305
677.935	1.73807
681.31	1.53826
684.685	1.51459
688.06	2.0395
691.434	2.53781
694.809	2.67474
698.184	3.76084
701.559	3.83536
704.934	2.20847
708.308	2.84727
711.683	1.67947
715.058	2.01903
718.433	1.27631
721.808	0.944473
725.183	1.11118
728.557	0.503006
731.932	0.4412
735.307	0.55603
738.682	1.04112
742.057	0.679413
745.432	0.982643
748.806	0.977753
752.181	0.146904
755.556	0.01387
758.931	0.005836
762.306	0.210419
765.68	1.06744
769.055	0.45311
772.43	0.579147
775.805	0.693325
779.18	0.716393
782.554	1.33531
785.929	0.151783
789.304	1.1669
792.679	0.313114
796.054	1.06441
799.428	0.225933
802.803	3.77602
806.178	6.3471
809.553	6.97246
812.928	7.23025
816.303	5.36065
819.677	2.64181
823.052	0.777565
826.427	0.398319
829.802	0.186279
833.177	1.58245
836.552	0.322365
839.926	0.411968
843.301	0.18132
846.676	0.746624
850.051	1.08963
853.426	0.381458
856.8	0.293053
860.175	0.389492
863.55	1.35645
866.925	0.363441
870.3	1.29714
873.674	1.00174
877.049	0.344406
880.424	1.20427
883.799	1.03333
887.174	0.548458
890.548	0.984097
893.923	0.286457
897.298	0.91291
900.673	0.84869
904.048	1.4326
907.423	0.656162
910.797	0.400425
914.172	0.80196
917.547	0.596138
920.922	1.36683
924.297	0.224121
927.671	0.85413
931.046	0.816673
934.421	0.692467
937.796	0.827629
941.171	0.29887
944.545	0.48967
947.92	0.757538
951.295	1.22809
954.67	0.385082
958.045	0.486176
961.42	0.804287
964.794	1.60534
968.169	2.06179
971.544	2.70723
974.919	3.11878
978.294	2.49252
981.668	1.94181
985.043	1.55987
988.418	1.28113
991.793	0.961693
995.168	0.804607
998.543	0.390144
1001.92	0.013916
1005.29	0.568653
1008.67	0.662994
1012.04	0.563801
1015.42	0.194084
1018.79	0.768681
1022.17	0.44886
1025.54	0.20098
1028.92	0.569037
1032.29	0.929506
1035.67	0.990561
1039.04	1.02742
1042.41	0.135815
1045.79	1.53879
1049.16	0.942207
1052.54	0.375614
1055.91	0.81171
1059.29	0.386726
1062.66	0.790546
1066.04	0.304287
1069.41	0.862358
1072.79	0.605999
1076.16	0.553497
1079.54	0.331062
1082.91	1.62002
1086.29	1.12452
1089.66	0.760559
1093.04	0.16433
1096.41	0.758667
1099.79	0.983902
1103.16	1.12718
1106.54	0.037979
1109.91	0.568157
1113.29	0.605621
1116.66	0.119286
1120.04	0.614426
1123.41	0.284348
1126.79	0.485249
1130.16	1.19587
1133.54	0.893562
1136.91	1.01899
1140.29	0.665489
1143.66	0.14249
1147.03	0.201546
1150.41	0.465401
1153.78	0.200928
1157.16	0.883194
1160.53	0.9809
1163.91	1.19625
1167.28	0.557346
1170.66	0.784382
1174.03	0.068653
1177.41	1.15571
1180.78	0.405468
1184.16	0.85487
1187.53	0.979973
1190.91	0.753536
1194.28	0.58976
1197.66	0.982056
1201.03	1.31278
1204.41	0.516277
1207.78	0.097481
1211.16	0.015919
1214.53	0.052307
1217.91	0.539234
1221.28	1.16631
1224.65	0.199192
1228.03	0.764137
1231.4	0.485443
1234.78	0.008858
1238.15	0.980324
1241.53	1.23489
1244.9	0.757481
1248.28	0.53511
1251.65	0.280354
1255.03	0.385754
1258.4	0.529999
1261.78	0.872982
1265.15	0.618496
1268.53	0.780807
1271.9	1.19403
1275.28	0.161171
1278.65	0.43515
1282.03	1.5108
