Measurement: Raman, 532 nm, unoriented, Raman Data Processed
Mineral: Ilvaite
Rruff sample: R050040
Ideal chemistry: CaFe^2+^_2_Fe^3+^OSi_2_O_7_(OH)
Locality: Capo Calamita, Isle of Elba, Italy
Source: University of Arizona Mineral Museum
Description: Brown fragment
Measured chemistry: Ca_1.00_(Fe^2+^_1.89_Mn_0.10_Mg_0.01_)_Î£=2_Fe^3+^_1.00_OSi_2.00_O_7_(OH); trace amounts of Al; OH estimated by charge balance
Raman shift (cm-1)	intensity
200.249	0
203.141	1.74971
206.034	1.8015
208.927	2.51436
211.819	4.67183
214.712	4.57697
217.605	3.32245
220.497	4.03209
223.39	6.417
226.283	7.55724
229.175	7.97768
232.068	5.9855
234.961	4.83502
237.854	1.61742
240.746	1.80336
243.639	0.617142
246.532	1.04216
249.424	0.85463
252.317	0.345779
255.21	0.057846
258.103	1.71226
260.995	2.15179
263.888	4.41943
266.781	5.23763
269.673	7.14795
272.566	9.25769
275.459	9.02008
278.351	8.93114
281.244	10.113
284.137	8.3441
287.029	7.40318
289.922	9.11151
292.815	9.40448
295.708	9.28648
298.6	8.07855
301.493	8.30827
304.386	8.81232
307.278	9.31158
310.171	12.036
313.064	12.0422
315.957	14.6143
318.849	17.8016
321.742	20.5731
324.635	24.2225
327.527	24.8392
330.42	24.8575
333.313	24.0599
336.205	22.1994
339.098	18.6524
341.991	16.7767
344.884	14.0205
347.776	12.457
350.669	9.33821
353.562	8.57368
356.454	7.53621
359.347	5.7834
362.24	4.45218
365.132	4.73618
368.025	3.25206
370.918	2.69455
373.81	3.55824
376.703	1.17218
379.596	1.88065
382.489	0.191925
385.381	0.090118
388.274	0.508545
391.167	0.749283
394.059	0.370255
396.952	0.08432
399.845	0.019211
402.738	0.546051
405.63	0.751114
408.523	2.71745
411.416	3.00403
414.308	2.44359
417.201	2.72839
420.094	3.28389
422.986	4.16931
425.879	3.97913
428.772	3.34721
431.664	2.7279
434.557	2.45825
437.45	2.29654
440.343	1.60716
443.235	0.822083
446.128	0.083466
449.021	0.015671
451.913	0.686256
454.806	0.323471
457.699	0.54158
460.591	0.027328
463.484	0.564301
466.377	0.000336
469.27	0.013641
472.162	1.31038
475.055	2.08441
477.948	4.40084
480.84	3.2733
483.733	5.40239
486.626	6.14172
489.519	7.45303
492.411	10.5646
495.304	12.1227
498.197	13.865
501.089	13.9498
503.982	13.4752
506.875	12.3951
509.767	12.1743
512.66	11.3854
515.553	11.1797
518.446	9.98846
521.338	8.8392
524.231	8.90784
527.124	8.39994
530.016	8.80946
532.909	8.44821
535.802	7.16341
538.694	6.13553
541.587	5.32113
544.48	4.26166
547.372	3.95332
550.265	3.52877
553.158	2.74407
556.051	1.46184
558.943	1.24593
561.836	1.81608
564.729	2.30489
567.621	1.61216
570.514	2.48849
573.407	4.49992
576.299	5.80125
579.192	6.54665
582.085	7.90134
584.978	9.31694
587.87	9.177
590.763	8.84972
593.656	7.398
596.548	7.7971
599.441	7.29263
602.334	7.17938
605.226	8.27099
608.119	7.90041
611.012	7.93382
613.905	6.97177
616.797	6.20267
619.69	6.3429
622.583	4.50613
625.475	3.80376
628.368	2.09663
631.261	0.681679
634.154	0.229782
637.046	0.857086
639.939	0.390488
642.832	0.262009
645.724	0.633156
648.617	0.672935
651.51	0.318558
654.402	0.065247
657.295	0.013199
660.188	0.996056
663.081	0.773529
665.973	0.608894
668.866	1.22067
671.759	2.04176
674.651	2.41146
677.544	2.22496
680.437	3.07274
683.329	4.87739
686.222	5.65955
689.115	7.18547
692.008	8.00417
694.9	11.0133
697.793	12.4212
700.686	14.2757
703.578	14.2525
706.471	12.5405
709.364	10.066
712.256	8.47245
715.149	6.57496
718.042	5.92138
720.934	4.80335
723.827	4.50898
726.72	4.00642
729.613	2.75909
732.505	3.48158
735.398	2.29657
738.291	2.49062
741.183	2.17696
744.076	2.21282
746.969	2.46351
749.861	1.50898
752.754	1.04404
755.647	0.271645
758.54	0.288017
761.432	0.592667
764.325	0.118668
767.218	0.384361
770.11	0.004112
773.003	0.200188
775.896	0.543518
778.788	0.128914
781.681	0.556168
784.574	0.048004
787.467	0.705902
790.359	0.424309
793.252	1.42324
796.145	2.58599
799.037	2.26934
801.93	4.44473
804.823	4.95856
807.716	6.65255
810.608	7.61353
813.501	8.2692
816.394	8.35604
819.286	6.73967
822.179	5.79649
825.072	3.66017
827.964	2.20731
830.857	2.03788
833.75	0.745056
836.643	0.950996
839.535	0.433716
842.428	0.121849
845.321	0.570709
848.213	1.44291
851.106	1.35815
853.999	1.80701
856.891	1.92408
859.784	2.3285
862.677	1.76827
865.569	1.98344
868.462	1.72089
871.355	1.59535
874.248	1.42621
877.14	1.7506
880.033	2.36403
882.926	0.053627
885.818	0.080887
888.711	0.709694
891.604	0.832626
894.496	0.367714
897.389	0.705414
900.282	0.866631
903.175	0.219795
906.067	0.246277
908.96	0.716988
911.853	0.087845
914.745	0.350525
917.638	0.735489
920.531	3.41536
923.423	1.98972
926.316	1.35258
929.209	1.55187
932.102	0.653702
934.994	1.39161
937.887	1.70345
940.78	2.09338
943.672	2.04034
946.565	2.89657
949.458	2.11246
952.351	2.41641
955.243	2.68974
958.136	3.93877
961.029	4.5545
963.921	5.75348
966.814	6.57748
969.707	8.18054
972.599	9.74867
975.492	11.1773
978.385	12.1295
981.278	10.851
984.17	10.4884
987.063	8.53708
989.956	7.41413
992.848	6.20689
995.741	4.06736
998.634	3.50083
1001.53	2.48585
1004.42	1.36737
1007.31	0.816719
1010.21	1.46212
1013.1	0.082626
1015.99	0.286942
1018.88	0.099686
1021.77	0.207214
1024.67	0.867126
1027.56	0.275444
1030.45	1.40712
1033.35	1.03368
1036.24	1.14097
1039.13	0.538551
1042.02	1.49364
1044.92	1.16125
1047.81	1.33659
1050.7	2.43079
1053.6	0.20462
1056.49	1.71725
1059.38	1.0018
1062.27	0.825966
1065.17	0.802902
1068.06	0.022743
1070.95	0.618164
1073.84	0.552574
1076.74	0.71254
1079.63	0.236046
1082.52	0.344559
1085.41	0.213402
1088.31	0.802399
1091.2	0.342606
1094.09	0.201385
1096.99	0.821426
1099.88	0.445
1102.77	0.448769
1105.66	0.444893
1108.56	0.483688
1111.45	1.0258
1114.34	0.333588
1117.23	0.20166
1120.13	1.15019
1123.02	0.597214
1125.91	0.179321
1128.81	1.13785
1131.7	0.494606
1134.59	1.36617
1137.48	0.82888
1140.38	1.01164
1143.27	0.676674
1146.16	1.6901
1149.05	1.42363
1151.95	0.774971
1154.84	1.39957
1157.73	0.76442
1160.62	2.0635
1163.52	1.47478
1166.41	1.21116
1169.3	1.46964
1172.2	2.05125
1175.09	0.594421
1177.98	1.06335
1180.87	0.619835
1183.77	0.94854
1186.66	1.08964
1189.55	0.690506
1192.44	0.855438
1195.34	0.401283
1198.23	2.14552
1201.12	0.931458
1204.02	0.64286
1206.91	1.08942
1209.8	1.10269
1212.69	1.37474
1215.59	0.50914
1218.48	0.350021
1221.37	1.02153
1224.26	1.1849
1227.16	0.537437
1230.05	1.27017
1232.94	1.00247
1235.84	1.09118
1238.73	0.22097
1241.62	0.804268
1244.51	1.50512
1247.41	1.24166
1250.3	1.15203
1253.19	1.044
1256.08	0.316322
1258.98	0.753731
1261.87	0.924805
1264.76	0.835075
1267.65	0.799355
1270.55	0.884743
1273.44	1.25081
1276.33	0.262161
1279.23	1.13012
1282.12	1.25225
1285.01	1.01
1287.9	1.61076
1290.8	1.0923
1293.69	1.69826
1296.58	0.067177
1299.47	0.011513
