Measurement: Raman, 532 nm, unoriented, Raman Data Processed
Mineral: Ilvaite
Rruff sample: R060474
Ideal chemistry: CaFe^2+^_2_Fe^3+^OSi_2_O_7_(OH)
Locality: Dal 'Negorsk, Primorskiy, Kray, Russia
Source: Michael Scott
Description: Steel gray prismatic crystal
Measured chemistry: Ca_1.00_(Fe^2+^_1.29_Mn_0.71_)_Σ=2_(Fe^3+^_0.93_Al_0.07_)_Σ=1_OSi_2.00_O_7_(OH); trace amounts of Mg; OH estimated by charge balance
Raman shift (cm-1)	intensity
198.968	0
201.861	4.90083
204.754	4.58096
207.647	8.88106
210.539	10.8006
213.432	12.1567
216.325	11.9965
219.217	8.90939
222.11	15.2246
225.003	19.2138
227.895	15.084
230.788	14.4755
233.681	11.112
236.573	8.08008
239.466	5.81468
242.359	7.04254
245.252	5.20215
248.144	5.34186
251.037	1.23773
253.93	1.88931
256.822	0.613205
259.715	1.7999
262.608	2.3035
265.5	7.6344
268.393	10.9683
271.286	12.109
274.179	16.5732
277.071	16.5613
279.964	15.727
282.857	13.6026
285.75	12.2296
288.642	8.79854
291.535	9.81326
294.428	9.32062
297.32	11.4581
300.213	12.0974
303.106	13.4678
305.998	14.9354
308.891	15.1997
311.784	13.7971
314.676	24.6307
317.569	30.0905
320.462	17.1956
323.355	18.0772
326.247	16.921
329.14	18.14
332.033	17.079
334.925	13.8167
337.818	13.5838
340.711	12.1127
343.603	11.1329
346.496	9.09664
349.389	10.6254
352.281	10.1554
355.174	8.65245
358.067	6.03097
360.96	4.31627
363.852	4.26794
366.745	2.4008
369.638	3.11723
372.53	1.27818
375.423	2.92586
378.316	1.01681
381.209	0.38076
384.101	0.642609
386.994	0.883614
389.887	0.670609
392.779	1.52227
395.672	0.411293
398.565	2.00364
401.457	1.58649
404.35	1.19249
407.243	1.70461
410.135	1.87377
413.028	2.14311
415.921	2.9576
418.814	4.69253
421.706	4.54721
424.599	3.18945
427.492	3.71226
430.384	1.60503
433.277	2.46099
436.17	0.409447
439.062	2.14477
441.955	0.650566
444.848	1.45651
447.741	0.325401
450.633	0.685394
453.526	0.430893
456.419	0.007629
459.311	1.12358
462.204	2.089
465.097	1.22133
467.99	2.29804
470.882	3.96895
473.775	3.27616
476.668	4.48584
479.56	7.12777
482.453	8.65072
485.346	11.5985
488.238	14.9051
491.131	19.4736
494.024	20.6086
496.916	23.1551
499.809	24.5915
502.702	22.747
505.595	20.7837
508.487	18.4235
511.38	17.426
514.273	15.6608
517.165	16.0019
520.058	15.1732
522.951	14.7545
525.844	15.6899
528.736	15.4368
531.629	13.0363
534.522	12.5694
537.414	12.5213
540.307	9.78679
543.2	9.6549
546.092	8.32797
548.985	7.59828
551.878	6.23869
554.771	5.05441
557.663	4.19432
560.556	3.32182
563.449	3.18529
566.341	2.58142
569.234	1.06287
572.127	2.99792
575.019	4.04754
577.912	4.55115
580.805	5.58448
583.697	6.91277
586.59	5.39351
589.483	3.24707
592.376	3.76549
595.268	3.64789
598.161	1.98291
601.054	2.76971
603.946	0.850533
606.839	0.645927
609.732	0.385368
612.625	0.625023
615.517	0.522659
618.41	0.087173
621.303	0.176193
624.195	1.00812
627.088	0.32209
629.981	0.344666
632.873	0.028358
635.766	0.851738
638.659	0.938721
641.552	0.559296
644.444	0.223297
647.337	0.984001
650.23	0.775192
653.122	1.40013
656.015	2.11646
658.908	1.29696
661.8	2.73917
664.693	3.28004
667.586	1.36194
670.479	2.20432
673.371	4.13744
676.264	2.05056
679.157	5.09237
682.049	5.67667
684.942	6.92789
687.835	8.23869
690.727	10.4967
693.62	11.998
696.513	15.0072
699.405	15.0319
702.298	14.6375
705.191	10.7499
708.084	6.36221
710.976	5.05537
713.869	4.33213
716.762	3.44585
719.654	1.68264
722.547	1.98239
725.44	2.51415
728.332	1.83941
731.225	0.672585
734.118	0.87957
737.011	0.771141
739.903	0.580208
742.796	0.224449
745.689	0.895134
748.581	0.580704
751.474	0.18689
754.367	0.788704
757.26	1.88304
760.152	0.909458
763.045	1.51407
765.938	0.287048
768.83	1.67145
771.723	0.506481
774.616	0.020691
777.508	0.866035
780.401	1.04811
783.294	2.00967
786.187	0.302612
789.079	2.50967
791.972	0.928459
794.865	2.14171
797.757	0.453976
800.65	2.36742
803.543	3.52613
806.435	4.58302
809.328	5.662
812.221	6.98104
815.114	7.50444
818.006	6.8688
820.899	5.09466
823.792	2.84015
826.684	2.07483
829.577	1.31683
832.47	0.934093
835.362	0.637596
838.255	0.262875
841.148	0.694458
844.04	0.581066
846.933	0.951447
849.826	0.317329
852.719	0.859268
855.611	1.07124
858.504	1.46212
861.397	1.35517
864.289	1.9969
867.182	1.96775
870.075	4.37841
872.967	3.57103
875.86	3.87135
878.753	4.60645
881.646	3.65028
884.538	3.87362
887.431	4.11295
890.324	3.97368
893.216	3.59541
896.109	2.76822
899.002	4.11219
901.894	3.63542
904.787	2.48458
907.68	1.20637
910.573	1.92752
913.465	1.28664
916.358	2.45226
919.251	2.34023
922.143	1.53617
925.036	1.81183
927.929	1.09219
930.822	1.70176
933.714	1.6943
936.607	0.882763
939.5	1.08512
942.392	0.310558
945.285	1.82433
948.178	0.106556
951.07	0.18018
953.963	0.615681
956.856	1.11389
959.749	1.87548
962.641	1.38255
965.534	1.47331
968.427	3.24645
971.319	4.3949
974.212	2.6977
977.105	4.97623
979.997	5.33362
982.89	5.59549
985.783	4.79891
988.676	5.54114
991.568	6.83274
994.461	5.61396
997.354	4.55755
1000.25	4.93427
1003.14	2.26776
1006.03	3.75011
1008.92	1.01835
1011.82	2.55859
1014.71	0.683334
1017.6	0.58963
1020.5	1.01564
1023.39	1.44489
1026.28	1.78302
1029.17	1.34272
1032.07	0.767056
1034.96	0.511093
1037.85	1.11118
1040.74	0.088943
1043.64	0.100925
1046.53	0.846622
1049.42	1.0247
1052.32	0.81374
1055.21	0.865005
1058.1	1.41383
1060.99	1.12222
1063.89	0.311424
1066.78	1.65497
1069.67	0.477127
1072.56	1.32386
1075.46	0.208549
1078.35	1.33167
1081.24	0.347988
1084.13	1.41467
1087.03	1.05674
1089.92	1.19304
1092.81	0.965626
1095.7	1.63515
1098.6	1.36509
1101.49	1.15642
1104.38	0.211967
1107.28	1.51146
1110.17	1.50619
1113.06	2.06179
1115.95	1.70179
1118.85	1.03363
1121.74	1.90074
1124.63	1.47794
1127.53	0.67337
1130.42	1.88481
1133.31	0.499088
1136.2	0.786396
1139.1	1.0717
1141.99	0.541496
1144.88	1.29979
1147.77	1.88627
1150.67	0.121128
1153.56	2.56063
1156.45	0.3297
1159.35	0.277119
1162.24	0.965694
1165.13	1.25767
1168.02	0.144627
1170.92	1.21083
1173.81	0.283394
1176.7	1.6188
1179.59	1.05753
1182.49	2.34947
1185.38	1.42241
1188.27	2.37065
1191.16	2.16085
1194.06	1.92054
1196.95	2.59826
1199.84	1.01527
1202.73	1.96919
1205.63	1.09081
1208.52	1.05248
1211.41	1.38582
1214.31	2.25294
1217.2	1.18991
1220.09	0.609013
1222.98	2.99862
1225.88	1.91679
1228.77	1.94741
1231.66	1.29532
1234.56	1.28696
1237.45	0.85173
1240.34	0.418522
1243.23	2.28871
1246.13	2.52858
1249.02	1.55736
1251.91	2.2606
1254.8	2.08325
1257.7	1.77636
1260.59	1.69563
1263.48	2.41601
1266.38	1.93686
1269.27	1.33672
1272.16	2.43982
1275.05	1.5762
1277.95	1.98504
1280.84	1.9175
1283.73	1.50885
1286.62	3.37069
1289.52	3.42507
1292.41	2.04481
1295.3	0.232243
1298.19	1.39898
1301.09	0.105446
