Measurement: Raman, 785 nm, unoriented, Raman Data Processed
Mineral: Imandrite
Rruff sample: R070027
Ideal chemistry: Na_12_Ca_3_Fe^3+^_2_Si_12_O_36_
Locality: Vuonnemijok River, Khibiny Massif, Kola Peninsula, Russia
Source: Michael Scott
Description: Yellowish brown vitreous crystal fragment
Raman shift (cm-1)	intensity
193.145	0
196.038	22.5371
198.93	49.6602
201.823	44.2793
204.716	78.0332
207.609	136.971
210.501	68.9844
213.394	66.9688
216.287	49.541
219.179	225.26
222.072	289.455
224.965	311.203
227.857	289.06
230.75	347.537
233.643	337.496
236.536	452.748
239.428	473.027
242.321	636.357
245.214	629.516
248.106	659.393
250.999	480.326
253.892	550.586
256.784	410.664
259.677	383.606
262.57	428.881
265.463	445.963
268.355	352.303
271.248	360.682
274.141	289.275
277.033	281.797
279.926	208.775
282.819	245.035
285.712	306.121
288.604	278.039
291.497	214.414
294.39	18.8398
297.282	79.3867
300.175	110.234
303.068	62.7383
305.96	171.312
308.853	135.041
311.746	17.3809
314.639	122.607
317.531	16.9531
320.424	82.2832
323.317	110.332
326.209	19.3672
329.102	87.2227
331.995	176.557
334.887	158.9
337.78	120.951
340.673	162.842
343.566	145.695
346.458	48.1055
349.351	91.1289
352.244	139.652
355.136	152.617
358.029	115.545
360.922	124.777
363.815	15.0566
366.707	115.848
369.6	4.46484
372.493	136.172
375.385	156.352
378.278	55.8711
381.171	193.504
384.063	111.494
386.956	11.7598
389.849	75.6309
392.741	38.6777
395.634	180.613
398.527	150.824
401.42	241.791
404.312	199.217
407.205	273.957
410.098	294.463
412.99	290.861
415.883	312.656
418.776	404.715
421.668	335.615
424.561	330.174
427.454	408.227
430.347	319.1
433.239	337.32
436.132	329.877
439.025	367.059
441.917	302.717
444.81	197.473
447.703	289.473
450.596	56.5605
453.488	59.4121
456.381	24.5254
459.274	44.9785
462.166	59.9062
465.059	9.76562
467.952	10.4355
470.844	11.1992
473.737	77.9238
476.63	30.9414
479.522	65.7695
482.415	72.7012
485.308	194.182
488.201	70.2656
491.093	227.701
493.986	387.215
496.879	409.279
499.771	340.041
502.664	456.883
505.557	546.16
508.45	596.799
511.342	676.002
514.235	713.238
517.128	786.268
520.02	821.871
522.913	803.094
525.806	928.939
528.698	1114.38
531.591	1115.25
534.484	1253.1
537.376	1377.68
540.269	1544.47
543.162	1687.37
546.055	1742.8
548.947	1825.54
551.84	1726.51
554.733	1535.39
557.625	1338.78
560.518	1166.11
563.411	1007.41
566.303	832.894
569.196	686.912
572.089	519.17
574.982	485.449
577.874	439.84
580.767	452.481
583.66	358.562
586.552	263.018
589.445	186.123
592.338	264.801
595.231	185.184
598.123	75.2695
601.016	71.2637
603.909	89.6504
606.801	53.9805
609.694	72.9062
612.587	54.3418
615.479	63.9648
618.372	60.9316
621.265	35.7715
624.158	115.514
627.05	31.4766
629.943	100.615
632.836	81.3555
635.728	4.84961
638.621	6.08203
641.514	77.1504
644.406	72.0527
647.299	10.3789
650.192	3.08008
653.085	26.1113
655.977	28.7949
658.87	139.248
661.763	140.828
664.655	16.7246
667.548	34.0938
670.441	128.34
673.333	117.764
676.226	136.029
679.119	135.59
682.012	124.434
684.904	152.955
687.797	172.772
690.69	132.703
693.582	175.119
696.475	198.992
699.368	249.57
702.26	217.033
705.153	203.207
708.046	218.062
710.939	283.557
713.831	271.932
716.724	261.682
719.617	121.076
722.509	292.816
725.402	215.869
728.295	247.978
731.188	177.668
734.08	182.252
736.973	202.223
739.866	147.68
742.758	209.566
745.651	227.344
748.544	194.756
751.436	275.1
754.329	244.725
757.222	275.07
760.115	142.231
763.007	99.8594
765.9	244.613
768.793	168.752
771.685	97.4277
774.578	188.053
777.471	53.1738
780.363	35.4004
783.256	101.189
786.149	64.7949
789.042	171.856
791.934	44.6191
794.827	10.0508
797.72	62.8359
800.612	19.8281
803.505	16.0801
806.398	113.738
809.29	17.3066
812.183	108.859
815.076	21.2285
817.968	142.295
820.861	115.279
823.754	152.316
826.647	240.904
829.539	230.898
832.432	366.898
835.325	455.918
838.217	677.578
841.11	708.551
844.003	790.361
846.895	896.562
849.788	877.016
852.681	1066.11
855.574	1224.94
858.466	1375.56
861.359	1390.63
864.252	1561.18
867.144	1502.78
870.037	1438.19
872.93	1405.08
875.822	1128.41
878.715	1127.33
881.608	968.801
884.501	868.473
887.393	859.08
890.286	775.432
893.179	717.887
896.071	532.26
898.964	521.598
901.857	422.988
904.75	535.941
907.642	339.125
910.535	319.856
913.428	155.023
916.32	177.154
919.213	145.272
922.106	96.3672
924.999	72.1543
927.891	62.5918
930.784	130.391
933.677	131.602
936.569	12.6621
939.462	21.9219
942.355	3.05273
945.247	1.43164
948.14	6.16602
951.033	18.6953
953.926	58.5723
956.818	128.471
959.711	180.885
962.604	361.178
965.496	248.041
968.389	176.529
971.282	245.26
974.174	72.5547
977.067	126.875
979.96	267.488
982.852	270.496
985.745	253.488
988.638	109.049
991.531	110.527
994.423	51.3145
997.316	78.7559
1000.21	95.3066
1003.1	105.301
1005.99	39.998
1008.89	16.0957
1011.78	59.2969
1014.67	44.8972
1017.57	94.0722
1020.46	77.1641
1023.35	113.125
1026.24	55.0664
1029.14	184.809
1032.03	92.4551
1034.92	109.316
1037.81	156.9
1040.71	37.3672
1043.6	8.88867
1046.49	22.2266
1049.38	33.9375
1052.28	100.277
1055.17	12.3633
1058.06	124.332
1060.95	154.553
1063.85	248.023
1066.74	298.35
1069.63	365.658
1072.53	340.731
1075.42	446.123
1078.31	429.065
1081.2	548.801
1084.1	494.316
1086.99	413.889
1089.88	486.348
1092.78	356.652
1095.67	284.799
1098.56	153.42
1101.45	186.176
1104.35	179.908
1107.24	39.8574
1110.13	165.621
1113.02	250.92
1115.92	5.56055
1118.81	56.625
1121.7	73.9473
1124.6	124.082
1127.49	101.721
1130.38	168.477
1133.27	44.3691
1136.17	137.076
1139.06	61.6484
1141.95	20.2969
1144.84	20.7344
1147.74	55.7695
1150.63	203.924
1153.52	114.805
1156.41	29.2969
1159.31	192.141
1162.2	83.9062
1165.09	137.883
1167.98	132.106
1170.88	50.9727
1173.77	97.1016
1176.66	132.047
1179.56	228.391
1182.45	243.879
1185.34	61.4648
1188.23	106.465
1191.13	32.3242
1194.02	156.301
1196.91	151.164
1199.81	16.3555
1202.7	147.551
1205.59	170.801
1208.48	69.5117
1211.38	114.18
1214.27	49.9609
1217.16	42.7695
1220.05	126.641
1222.95	147.953
1225.84	69.9219
1228.73	170.555
1231.62	30.8516
