Measurement: Raman, 532 nm, unoriented, Raman Data Processed
Mineral: Imandrite
Rruff sample: R070027
Ideal chemistry: Na_12_Ca_3_Fe^3+^_2_Si_12_O_36_
Locality: Vuonnemijok River, Khibiny Massif, Kola Peninsula, Russia
Source: Michael Scott
Description: Yellowish brown vitreous crystal fragment
Raman shift (cm-1)	intensity
182.002	0
184.895	0.206055
187.787	39.7949
190.68	17.9365
193.573	17.8594
196.465	15.6455
199.358	67.0322
202.251	15.7305
205.143	15.9121
208.036	114.519
210.929	139.811
213.821	112.611
216.714	176.792
219.607	276.094
222.5	304.624
225.392	398.359
228.285	463.526
231.178	528.849
234.07	581.638
236.963	691.999
239.856	727.901
242.749	772.585
245.641	825.569
248.534	882.454
251.427	846.464
254.319	854.062
257.212	827.395
260.105	734.844
262.997	714.556
265.89	691.436
268.783	564.771
271.675	606.753
274.568	477.001
277.461	420.123
280.353	518.769
283.246	432.238
286.139	375.735
289.032	312.889
291.924	349.118
294.817	341.176
297.71	168.634
300.602	186.017
303.495	300.291
306.388	28.2637
309.281	42.3203
312.173	26.5713
315.066	16.0146
317.959	0.65332
320.851	23.1123
323.744	100.466
326.637	55.0703
329.529	149.303
332.422	118.855
335.315	155.2
338.207	42.4609
341.1	234.955
343.993	86.708
346.886	192.569
349.778	101.684
352.671	114.093
355.564	98.874
358.456	48.4932
361.349	42.2598
364.242	24.7832
367.135	56.7334
370.027	38.2549
372.92	33.8828
375.813	2.00781
378.705	72.9268
381.598	7.13184
384.491	97.4053
387.383	42.1406
390.276	99.9443
393.169	81.7783
396.061	158.881
398.954	232.732
401.847	209.457
404.74	274.908
407.632	425.156
410.525	581.855
413.418	580.247
416.31	564.592
419.203	656.964
422.096	642.284
424.988	715.873
427.881	773.47
430.774	791.587
433.666	871.051
436.559	794.318
439.452	764.743
442.345	642.394
445.237	547.469
448.13	365.647
451.023	270.254
453.915	179.061
456.808	58.501
459.701	29.6963
462.593	16.0654
465.486	61.3037
468.379	62.4414
471.272	5.85644
474.164	21.9678
477.057	57.207
479.95	189.284
482.842	256.003
485.735	394.857
488.628	456.767
491.52	586.577
494.413	763.606
497.306	904.731
500.199	1040.34
503.091	1255.44
505.984	1321.79
508.877	1447.99
511.769	1605.6
514.662	1813.99
517.555	1930.6
520.447	2187.99
523.34	2288.06
526.233	2528.36
529.125	2737.02
532.018	2923.94
534.911	3258.79
537.804	3583.71
540.696	3986.15
543.589	4234.66
546.482	4413.35
549.374	4448.24
552.267	4105.1
555.16	3647.48
558.052	3210.95
560.945	2663.98
563.838	2178.32
566.731	1897.04
569.623	1471.4
572.516	1228.32
575.409	912.883
578.301	789.643
581.194	644.423
584.087	516.197
586.979	463.662
589.872	369.991
592.765	312.01
595.658	259.788
598.55	225.779
601.443	168.573
604.336	113.954
607.228	8.10156
610.121	78.543
613.014	97.415
615.906	37.4639
618.799	104.692
621.692	107.647
624.585	36.8057
627.477	30.3164
630.37	33.2412
633.263	50.0684
636.155	7.16602
639.048	24.0029
641.941	82.9814
644.833	13.7197
647.726	16.8252
650.619	49.6094
653.511	17.4121
656.404	48.8633
659.297	9.0498
662.189	76.7812
665.082	122.038
667.975	112.74
670.868	140.306
673.76	130.664
676.653	214.579
679.546	233.485
682.438	313.062
685.331	308.988
688.224	323.818
691.116	307.053
694.009	384.465
696.902	435.557
699.795	466.72
702.687	442.174
705.58	454.69
708.473	491.462
711.365	431.885
714.258	407.295
717.151	394.273
720.043	374.696
722.936	402.589
725.829	326.653
728.722	420.614
731.614	328.512
734.507	379.118
737.4	282.57
740.292	335.786
743.185	372.798
746.078	353.742
748.971	351.628
751.863	402.44
754.756	415.853
757.649	363.413
760.541	364.757
763.434	387.157
766.327	365.435
769.219	306.591
772.112	255.469
775.005	292.675
777.897	238.211
780.79	265.831
783.683	141.394
786.576	216.069
789.468	147.887
792.361	60.2539
795.254	15.7207
798.146	13.6387
801.039	45.5381
803.932	43.1016
806.824	71.3418
809.717	29.79
812.61	82.4951
815.502	54.8008
818.395	76.2559
821.288	202.663
824.181	284.835
827.073	396.736
829.966	621.16
832.859	819.037
835.751	938.055
838.644	1325.66
841.537	1616.99
844.429	1856.01
847.322	2234.45
850.215	2443.09
853.107	2804.07
856	3175.38
858.893	3449.04
861.786	3449.83
864.678	3529.72
867.571	3498.74
870.464	3198.55
873.356	3054.7
876.249	2703.07
879.142	2535.23
882.034	2297.43
884.927	2020.14
887.82	1792.76
890.713	1736.55
893.605	1478.53
896.498	1360.15
899.391	1181.47
902.283	1102.91
905.176	947.635
908.069	759.668
910.961	540.861
913.854	474.611
916.747	400.559
919.639	159.039
922.532	153.935
925.425	18.6094
928.318	38.7461
931.21	20.1758
934.103	87.1016
936.996	93.0566
939.888	124.721
942.781	371.228
945.674	358.465
948.567	462.856
951.459	656.191
954.352	814.172
957.245	976.238
960.137	946.062
963.03	1083.91
965.923	1089.2
968.815	959.99
971.708	1036.06
974.601	956.848
977.494	908.918
980.386	810.477
983.279	658.594
986.172	587.42
989.064	411.574
991.957	256.641
994.85	295.955
997.742	221.248
1000.63	0.419922
1003.53	12.6523
1006.42	20.6074
1009.31	117.373
1012.21	23.5195
1015.1	51.1211
1017.99	112.215
1020.88	118.494
1023.78	84.4453
1026.67	174.277
1029.56	95.6269
1032.45	87.1797
1035.35	69.5977
1038.24	46.1758
1041.13	22.7734
1044.03	1.95703
1046.92	27.8633
1049.81	55.416
1052.7	206.721
1055.6	183.027
1058.49	355.523
1061.38	559.019
1064.27	773.992
1067.17	854.144
1070.06	1083.97
1072.95	1025.97
1075.85	1269.11
1078.74	1414.19
1081.63	1402.13
1084.52	1518.2
1087.42	1346.41
1090.31	1236.02
1093.2	954.648
1096.09	814.523
1098.99	717.546
1101.88	501.786
1104.77	415.099
1107.66	270.924
1110.56	327.078
1113.45	178.102
1116.34	292.412
1119.24	219.882
1122.13	97.2607
1125.02	130.98
1127.91	141.63
1130.81	10.0918
1133.7	7.4834
1136.59	42.9853
1139.48	0.50293
1142.38	3.85156
1145.27	13.1787
1148.16	67.6973
1151.06	162.632
1153.95	139.935
1156.84	81.0576
1159.73	18.8516
1162.63	167.359
1165.52	223.558
1168.41	194.311
1171.3	243.196
1174.2	223.236
1177.09	242.961
1179.98	226.681
1182.88	267.986
1185.77	262.414
1188.66	308.957
1191.55	199.928
1194.45	214.201
1197.34	201.216
1200.23	142.333
1203.12	162.12
1206.02	74.9199
1208.91	96.5576
1211.8	145.677
1214.69	73.7998
1217.59	34.8447
1220.48	47.5371
1223.37	79.8926
1226.27	216.483
1229.16	127.273
1232.05	117.664
1234.94	129.546
1237.84	62.4277
1240.73	133.602
1243.62	123.108
1246.51	121.767
1249.41	113.969
1252.3	119.444
1255.19	215.535
1258.09	89.25
1260.98	64.5625
1263.87	150.653
1266.76	50.8897
1269.66	55.123
1272.55	140.731
1275.44	94.5938
1278.33	139.005
1281.23	50.5693
1284.12	109.911
1287.01	155.978
1289.9	37.8613
1292.8	88.5791
1295.69	57.9648
1298.58	75.6709
1301.47	8.49316
1304.37	87.2793
1307.26	38.2217
