Measurement: Raman, 780 nm, unoriented, Raman Data Processed
Mineral: Imiterite
Rruff sample: R080014
Ideal chemistry: Ag_2_HgS_2_
Locality: Imiter, Morocco
Source: Michael Scott
Description: Black, metallic, prismatic crystals with striation, associated with calcite and dolomite
Raman shift (cm-1)	intensity
153.81	0
156.703	0.124885
159.596	0.042774
162.488	0.121214
165.381	0.348727
168.274	0.357309
171.167	0.182257
174.059	0.27827
176.952	0.230828
179.845	0.026244
182.737	0.175661
185.63	0.052049
188.523	0.162878
191.416	0.176836
194.308	0.156267
197.201	0.644109
200.094	0.415835
202.986	0.126532
205.879	0.05722
208.772	0.01565
211.664	0.071059
214.557	0.022637
217.45	0.119566
220.343	0.053705
223.235	0.208164
226.128	0.41261
229.021	0.47183
231.913	0.066546
234.806	0.367914
237.699	0.453857
240.591	0.518021
243.484	0.687359
246.377	0.636876
249.269	0.505434
252.162	0.320406
255.055	0.766029
257.948	0.664054
260.84	1.28328
263.733	1.65831
266.626	2.14572
269.518	2.65746
272.411	2.78769
275.304	3.55669
278.197	4.18194
281.089	4.32312
283.982	3.52938
286.875	2.49056
289.767	1.33279
292.66	1.08918
295.553	0.755878
298.445	0.667087
301.338	0.6128
304.231	0.367993
307.123	0.51537
310.016	0.348925
312.909	0.179391
315.802	0.332932
318.694	0.247239
321.587	0.161499
324.48	0.003073
327.372	0.218346
330.265	0.186101
333.158	0.21368
336.05	0.231663
338.943	0.19728
341.836	0.305473
344.729	0.102375
347.621	0.322611
350.514	0.147922
353.407	0.135115
356.299	0.054989
359.192	0.072855
362.085	0.300694
364.978	0.37
367.87	0.101983
370.763	0.416563
373.656	0.235546
376.548	0.259427
379.441	0.141304
382.334	0.204522
385.226	0.070076
388.119	0.156076
391.012	0.361917
393.904	0.077404
396.797	0.574653
399.69	0.370397
402.583	0.304865
405.475	0.232079
408.368	0.402104
411.261	0.167268
414.153	0.440006
417.046	0.273155
419.939	0.085314
422.832	0.312103
425.724	0.386901
428.617	0.433683
431.51	0.386285
434.402	0.415052
437.295	0.104794
440.188	0.193739
443.08	0.356137
445.973	0.003294
448.866	0.31333
451.759	0.196143
454.651	0.104825
457.544	0.515378
460.437	0.131173
463.329	0.000674
466.222	0.43153
469.115	0.029984
472.007	0.271512
474.9	0.29609
477.793	0.134077
480.685	0.054955
483.578	0.154214
486.471	0.476932
489.364	0.255316
492.256	0.350597
495.149	0.387109
498.042	0.285298
500.934	0.129169
503.827	0.255471
506.72	0.553331
509.613	0.128984
512.505	0.235097
515.398	0.401744
518.291	0.196755
521.183	0.503858
524.076	0.431413
526.969	0.313203
529.861	0.275193
532.754	0.512995
535.647	0.339023
538.539	0.243623
541.432	0.589615
544.325	0.419231
547.218	0.216973
550.11	0.204643
553.003	0.026859
555.896	0.14311
558.788	0.538796
561.681	0.010168
564.574	0.332357
567.466	0.435413
570.359	0.403083
573.252	0.435636
576.145	0.243536
579.037	0.271569
581.93	0.304886
584.823	0.446115
587.715	0.265952
590.608	0.186301
593.501	0.004807
596.394	0.467483
599.286	0.318696
602.179	0.463924
605.072	0.027327
607.964	0.740473
610.857	0.335629
613.75	0.412286
616.642	0.442554
619.535	0.239543
622.428	0.215584
625.321	0.453741
628.213	0.36427
631.106	0.041648
633.999	0.183069
636.891	0.062808
639.784	0.383008
642.677	0.51312
645.569	0.46113
648.462	0.321023
651.355	0.379418
654.247	0.497368
657.14	0.63805
660.033	0.375041
662.926	0.16892
665.818	0.331786
668.711	0.302728
671.604	0.730035
674.496	0.343787
677.389	0.308789
680.282	0.051646
683.174	0.600887
686.067	0.260318
688.96	0.192823
691.853	0.329574
694.745	0.44314
697.638	0.033089
700.531	0.403527
703.423	0.109872
706.316	0.489797
709.209	0.33889
712.101	0.650855
714.994	0.251708
717.887	0.141394
720.78	0.435252
723.672	0.30967
726.565	0.421911
729.458	0.392857
732.35	0.234165
735.243	0.43557
738.136	0.668749
741.029	0.292009
743.921	0.245087
746.814	0.339925
749.707	0.095894
752.599	0.557811
755.492	0.329701
758.385	0.445393
761.277	0.244709
764.17	0.061829
767.063	0.09054
769.956	0.169901
772.848	0.189326
775.741	0.055594
778.634	0.392143
781.526	0.131644
784.419	0.147396
787.312	0.379986
790.204	0.221465
793.097	0.003959
795.99	0.365202
798.883	0.224655
801.775	0.086195
804.668	0.338389
807.561	0.46169
810.453	0.763492
813.346	0.205595
816.239	0.435936
819.131	0.442949
822.024	0.191836
824.917	0.167337
827.809	0.348544
830.702	0.160553
833.595	0.176221
836.487	0.208498
839.38	0.44889
842.273	0.336636
845.166	0.499864
848.058	0.076386
850.951	0.036339
853.844	0.354488
856.736	0.247069
859.629	0.320357
862.522	0.441516
865.415	0.228196
868.307	0.172035
871.2	0.358858
874.093	0.191178
876.985	0.144604
879.878	0.213982
882.771	0.095463
885.663	0.111086
888.556	0.252965
891.449	0.286595
894.342	0.130102
897.234	0.466284
900.127	0.109303
903.02	0.154401
905.912	0.312429
908.805	0.353354
911.698	0.623025
914.591	0.425772
917.483	0.135725
920.376	0.274469
923.269	0.507185
926.161	0.155227
929.054	0.054676
931.947	0.099752
934.839	0.285655
937.732	0.235672
940.625	0.607247
943.518	0.011221
946.41	0.208352
949.303	0.015133
952.196	0.258283
955.088	0.394608
957.981	0.206812
960.874	0.427525
963.766	0.138903
966.659	0.246172
969.552	0.386079
972.444	0.058697
975.337	0.280313
978.23	0.051643
981.123	0.344911
984.015	0.276975
986.908	0.578865
989.801	0.38706
992.693	0.234408
995.586	0.406514
998.479	0.334534
1001.37	0.046237
1004.26	0.177394
1007.16	0.298464
1010.05	0.394635
1012.94	0.340572
1015.84	0.160492
1018.73	0.255579
1021.62	0.593458
1024.51	0.373732
1027.41	0.146853
1030.3	0.305465
1033.19	0.523352
1036.08	0.425977
1038.98	0.455936
1041.87	0.137031
1044.76	0.279149
1047.65	0.389108
1050.55	0.357059
1053.44	0.052634
1056.33	0.390617
1059.22	0.400013
1062.12	0.236719
1065.01	0.126688
1067.9	0.287594
1070.8	0.512097
1073.69	0.361785
1076.58	0.212677
1079.47	0.548973
1082.37	0.448204
1085.26	0.421807
1088.15	0.166785
1091.05	0.497705
1093.94	0.27681
1096.83	0.31793
1099.72	0.051254
1102.62	0.077009
1105.51	0.336782
1108.4	0.692624
1111.29	0.013165
1114.19	0.249012
1117.08	0.302202
1119.97	0.06249
1122.87	0.533776
1125.76	0.439512
1128.65	0.549291
1131.54	0.07786
1134.44	0.504388
1137.33	0.51901
1140.22	0.266315
1143.11	0.325896
1146.01	0.321545
1148.9	0.066277
1151.79	0.705793
1154.68	0.412664
1157.58	0.217917
1160.47	0.435835
1163.36	0.319085
1166.26	0.18246
1169.15	0.265309
1172.04	0.346262
1174.93	0.210354
1177.83	0.257364
1180.72	0.338779
1183.61	0.418791
1186.5	0.360602
1189.4	0.146909
1192.29	0.622327
1195.18	0.19509
1198.08	0.560736
1200.97	0.131792
1203.86	0.165188
1206.75	0.539428
1209.65	0.123797
1212.54	0.40965
1215.43	0.239686
1218.32	0.151628
1221.22	0.318244
1224.11	0.391654
1227	0.194661
1229.89	0.145097
1232.79	0.226519
1235.68	0.17367
1238.57	0.312021
1241.47	0.279526
1244.36	0.497059
1247.25	0.093171
1250.14	0.200052
1253.04	0.560107
1255.93	0.301666
1258.82	0.225806
1261.71	0.538517
1264.61	0.293717
1267.5	0.454437
1270.39	0.221218
1273.29	0.056025
1276.18	0.153399
