Measurement: Raman, 785 nm, unoriented, Raman Data Processed
Mineral: Indium
Rruff sample: R060771
Ideal chemistry: In
Locality: Eastern Transbaikal, Russia
Source: Michael Scott
Description: Dark grey metallic grains
Raman shift (cm-1)	intensity
173.596	0
176.489	20.8425
179.382	17.8575
182.274	24.7452
185.167	36.3827
188.06	118.538
190.952	122.225
193.845	43.2022
196.738	332.902
199.631	247.272
202.523	190.987
205.416	70.1035
208.309	17.0546
211.201	50.5803
214.094	32.7825
216.987	272.019
219.88	201.286
222.772	471.803
225.665	211.199
228.558	314.588
231.45	620.212
234.343	784.104
237.236	965.297
240.128	1021.65
243.021	1253.54
245.914	1394.73
248.807	1446.09
251.699	1794.84
254.592	2096.65
257.485	2398.2
260.377	2709.05
263.27	2826.32
266.163	2736.22
269.055	2669.97
271.948	2369.22
274.841	2319.54
277.733	2059.64
280.626	2214.67
283.519	1989.94
286.412	1798.54
289.304	1318.39
292.197	931.494
295.09	592.154
297.982	574.429
300.875	541.899
303.768	754.468
306.66	912.26
309.553	446.075
312.446	178.257
315.339	87.4843
318.231	2.06678
321.124	39.2173
324.017	137.216
326.909	404.508
329.802	424.847
332.695	442.054
335.587	237.032
338.48	18.6583
341.373	25.3349
344.266	8.17355
347.158	190.177
350.051	549.877
352.944	578.445
355.836	416.327
358.729	218.948
361.622	48.7297
364.514	4.0094
367.407	12.3086
370.3	503.706
373.193	448.056
376.085	393.885
378.978	280.234
381.871	18.8488
384.763	96.6221
387.656	14.4196
390.549	8.85502
393.441	223.962
396.334	289.256
399.227	196.522
402.12	25.022
405.012	4.38582
407.905	8.36556
410.798	8.72193
413.69	159.202
416.583	305.244
419.476	431.949
422.368	221.674
425.261	273.847
428.154	230.294
431.047	210.489
433.939	205.737
436.832	124.113
439.725	275.468
442.617	418.938
445.51	347.808
448.403	409.082
451.296	229.341
454.188	115.821
457.081	21.7282
459.974	64.7124
462.866	295.946
465.759	253.29
468.652	195.113
471.544	251.35
474.437	95.8951
477.33	44.2716
480.223	109.275
483.115	10.2087
486.008	99.9377
488.901	154.779
491.793	269.06
494.686	101.803
497.579	102.088
500.471	12.1756
503.364	2.01582
506.257	36.7833
509.15	134.363
512.042	147.112
514.935	204.101
517.828	18.1269
520.72	138.223
523.613	238.325
526.506	146.759
529.398	156.736
532.291	67.1084
535.184	171.145
538.076	236.399
540.969	310.808
543.862	13.2289
546.755	26.7677
549.647	13.444
552.54	118.15
555.433	106.976
558.325	209.367
561.218	331.975
564.111	179.683
567.003	276.773
569.896	2.28308
572.789	23.2093
575.682	0.411591
578.574	69.9763
581.467	208.601
584.36	72.6411
587.252	164.653
590.145	133.622
593.038	189.537
595.93	281.45
598.823	391.748
601.716	310.31
604.609	404.076
607.501	409.467
610.394	594.327
613.287	618.098
616.179	675.661
619.072	845.381
621.965	815.107
624.857	1193.43
627.75	1116.77
630.643	1229.33
633.536	1215.19
636.428	1296.59
639.321	1280.53
642.214	1279.77
645.106	1182.95
647.999	940.729
650.892	757.334
653.784	831.286
656.677	739.599
659.57	633.376
662.463	415.312
665.355	127.915
668.248	126.536
671.141	266.765
674.033	332.78
676.926	118.284
679.819	96.5319
682.711	26.2334
685.604	36.1002
688.497	8.84003
691.39	33.0935
694.282	88.9526
697.175	311.464
700.068	128.715
702.96	18.1317
705.853	49.9303
708.746	96.2873
711.638	104.714
714.531	46.5893
717.424	57.0827
720.317	141.877
723.209	158.195
726.102	5.31892
728.995	12.7881
731.887	49.7561
734.78	136.084
737.673	28.1141
740.565	219.491
743.458	217.586
746.351	267.487
749.244	212.726
752.136	145.779
755.029	130.561
757.922	79.5341
760.814	140.519
763.707	6.33954
766.6	190.218
769.492	247.271
772.385	225.632
775.278	251.303
778.171	0.073946
781.063	204.436
783.956	155.572
786.849	351.824
789.741	315.304
792.634	195.071
795.527	1.2243
798.419	39.617
801.312	15.0515
804.205	5.75702
807.098	74.6166
809.99	231.935
812.883	152.832
815.776	353.155
818.668	142.927
821.561	120.445
824.454	7.26032
827.346	234.664
830.239	322.074
833.132	120.55
836.024	205.205
838.917	110.293
841.81	147.832
844.703	153.31
847.595	161.9
850.488	342.2
853.381	191.526
856.273	183.771
859.166	111.903
862.059	135.62
864.951	142.185
867.844	125.414
870.737	69.1514
873.63	53.5148
876.522	79.8731
879.415	176.905
882.308	137.514
885.2	165.683
888.093	7.23528
890.986	105.735
893.878	162.835
896.771	135.47
899.664	21.1745
902.557	163.196
905.449	151.988
908.342	155.944
911.235	182.369
914.127	324.199
917.02	161.029
919.913	4.781
922.805	63.4404
925.698	3.68478
928.591	33.7033
931.484	304.305
934.376	307.865
937.269	281.877
940.162	43.6764
943.054	126.619
945.947	64.3583
948.84	160.772
951.732	223.05
954.625	404.608
957.518	164.824
960.411	366.219
963.303	209.796
966.196	245.126
969.089	155.088
971.981	90.718
974.874	244.72
977.767	178.576
980.659	299.501
983.552	134.795
986.445	15.1578
989.338	128.46
992.23	12.0008
995.123	107.872
998.016	114.347
1000.91	166.474
1003.8	211.337
1006.69	232.804
1009.59	95.7656
1012.48	143.617
1015.37	128.587
1018.26	8.91426
1021.16	96.21
1024.05	20.45
1026.94	152.484
1029.84	241.125
1032.73	231.837
1035.62	331.389
1038.51	104.568
1041.41	320.087
1044.3	295.492
1047.19	117.808
1050.08	8.61337
1052.98	25.8088
1055.87	150.578
1058.76	199.099
1061.65	28.7136
1064.55	8.61657
1067.44	79.3257
1070.33	54.4017
1073.23	131.385
1076.12	231.031
1079.01	237.232
1081.9	324.625
1084.8	293.663
1087.69	25.4278
1090.58	150.598
1093.47	330.855
1096.37	227.351
1099.26	242.923
1102.15	119.759
1105.05	39.0508
1107.94	7.16652
1110.83	152.287
1113.72	115.043
1116.62	267.128
1119.51	179.371
1122.4	295.578
1125.3	170.608
1128.19	296.483
1131.08	299.742
1133.97	122.927
1136.87	41.5344
1139.76	20.0507
1142.65	80.6676
1145.54	240.154
1148.44	126.674
1151.33	107.439
1154.22	41.8792
1157.11	3.5586
1160.01	225.706
1162.9	357.152
1165.79	197.149
1168.68	163.493
1171.58	247.223
1174.47	8.61622
1177.36	143.686
1180.26	67.8709
1183.15	113.971
1186.04	20.047
1188.93	5.04618
1191.83	259.732
1194.72	122.119
1197.61	179.419
1200.51	152.105
1203.4	225.281
1206.29	87.5969
1209.18	17.4047
1212.08	43.929
1214.97	161.57
1217.86	256.08
1220.75	175.803
1223.65	245.944
1226.54	315.266
1229.43	189.577
1232.32	98.5663
1235.22	33.572
