Measurement: Raman, 532 nm, unoriented, Raman Data Processed
Mineral: Iodargyrite
Rruff sample: R080017
Ideal chemistry: Ag^1+^I^1-^
Locality: Broken Hill, New South Wales, Australia
Source: Michael Scott
Description: Lemon-yellow prismatic hexagonal crystals
Raman shift (cm-1)	intensity
140.172	0
143.546	3.29236
146.921	8.71411
150.296	3.40067
153.671	5.99225
157.046	18.8203
160.421	14.0566
163.795	17.0209
167.17	9.67125
170.545	13.267
173.92	8.36699
177.294	1.12355
180.669	3.03339
184.044	0.345352
187.419	3.46065
190.794	5.06535
194.169	9.0611
197.543	4.23473
200.918	13.3187
204.293	24.7742
207.668	27.0131
211.043	25.0229
214.417	26.5747
217.792	31.3262
221.167	32.4313
224.542	33.6726
227.917	27.1965
231.292	27.2301
234.666	25.7725
238.041	19.6608
241.416	18.8123
244.791	15.4135
248.166	19.2237
251.541	11.0012
254.915	11.0894
258.29	9.57349
261.665	7.30888
265.04	11.6718
268.415	5.2924
271.789	8.60139
275.164	7.81011
278.539	8.60332
281.914	6.86745
285.289	6.3154
288.663	8.41551
292.038	6.88734
295.413	2.29232
298.788	2.58437
302.163	7.35946
305.538	0.54966
308.912	2.34981
312.287	2.60252
315.662	2.41644
319.037	3.49156
322.412	3.67973
325.786	4.63312
329.161	2.80415
332.536	4.56872
335.911	4.69746
339.286	0.868317
342.661	1.33511
346.035	5.5995
349.41	5.38198
352.785	5.07427
356.16	4.21533
359.535	4.33441
362.909	5.95547
366.284	0.351006
369.659	4.07871
373.034	2.06761
376.409	1.39114
379.784	3.49438
383.158	2.03847
386.533	3.08929
389.908	0.666267
393.283	3.65453
396.658	4.37454
400.032	1.10364
403.407	3.88518
406.782	6.72886
410.157	4.56558
413.532	5.76679
416.906	3.85666
420.281	6.13409
423.656	6.4425
427.031	7.61702
430.406	5.75467
433.781	2.75516
437.155	2.33382
440.53	2.09421
443.905	6.76771
447.28	5.25275
450.655	4.11195
454.029	0.005203
457.404	4.28458
460.779	0.195602
464.154	3.97082
467.529	5.02475
470.904	0.927086
474.278	2.79393
477.653	3.70433
481.028	2.92525
484.403	7.63864
487.778	3.7216
491.152	2.97533
494.527	2.27169
497.902	6.70167
501.277	5.21162
504.652	4.90208
508.026	5.667
511.401	0.891876
514.776	1.61471
518.151	5.41909
521.526	0.28389
524.901	3.6283
528.275	4.14526
531.65	3.72173
535.025	2.96711
538.4	3.1778
541.775	0.72477
545.149	4.00346
548.524	2.45112
551.899	3.58395
555.274	1.62689
558.649	2.45451
562.024	5.76445
565.398	7.39783
568.773	6.17481
572.148	5.23993
575.523	2.50179
578.898	5.39886
582.273	4.46596
585.647	5.53042
589.022	4.64741
592.397	3.49188
595.772	3.00822
599.146	3.56449
602.521	3.91105
605.896	1.60387
609.271	0.834488
612.646	3.83902
616.021	3.78259
619.395	4.36889
622.77	3.59941
626.145	0.870575
629.52	1.99606
632.895	0.845703
636.269	1.46983
639.644	5.52038
643.019	4.77638
646.394	7.74836
649.769	1.19595
653.144	4.5166
656.518	3.86246
659.893	2.8916
663.268	2.95832
666.643	1.88699
670.018	0.723228
673.393	2.85326
676.767	6.4459
680.142	7.14885
683.517	1.46132
686.892	3.78368
690.267	1.44047
693.641	5.53886
697.016	1.83087
700.391	2.06768
703.766	6.54462
707.141	5.50873
710.515	6.23196
713.89	0.128746
717.265	5.4523
720.64	2.91164
724.015	3.32185
727.389	6.55687
730.764	4.89716
734.139	0.12542
737.514	7.29435
740.889	5.73798
744.264	3.70246
747.638	8.73933
751.013	4.43951
754.388	4.588
757.763	2.59871
761.138	3.87849
764.513	0.247879
767.887	4.40516
771.262	7.0803
774.637	9.06965
778.012	2.18109
781.387	2.29265
784.761	3.82739
788.136	1.97141
791.511	1.30754
794.886	3.04871
798.261	1.84702
801.635	2.68696
805.01	5.11021
808.385	3.10109
811.76	0.947189
815.135	4.83817
818.51	0.511024
821.884	0.630241
825.259	6.18105
828.634	2.76324
832.009	5.15418
835.384	2.84747
838.759	0.276329
842.133	3.98153
845.508	3.19902
848.883	6.18655
852.258	1.37435
855.633	0.821442
859.007	11.8189
862.382	5.13217
865.757	2.50758
869.132	5.22295
872.507	4.02877
875.881	3.68644
879.256	6.22071
882.631	2.98374
886.006	1.8381
889.381	6.60358
892.756	6.06248
896.13	2.98061
899.505	5.02921
902.88	3.08398
906.255	0.52552
909.63	5.2187
913.005	2.26482
916.379	2.49038
919.754	0.238457
923.129	4.60886
926.504	3.00729
929.879	3.49007
933.253	3.58021
936.628	1.66058
940.003	2.50813
943.378	4.60412
946.753	2.3203
950.127	1.51073
953.502	2.33184
956.877	3.21815
960.252	2.78156
963.627	5.322
967.001	3.57661
970.376	5.71284
973.751	3.82507
977.126	2.92567
980.501	0.797684
983.875	6.10109
987.25	4.05216
990.625	2.72138
994	4.55576
997.375	3.68118
1000.75	2.70414
1004.12	4.67832
1007.5	4.65027
1010.87	3.49869
1014.25	1.87041
1017.62	6.73589
1021	2.44338
1024.37	5.23723
1027.75	2.39334
1031.12	5.63269
1034.5	0.445526
1037.87	3.07686
1041.25	3.85135
1044.62	3.99564
1048	3.32005
1051.37	3.5195
1054.75	5.36562
1058.12	1.83435
1061.5	2.18941
1064.87	0.674652
1068.25	1.41299
1071.62	2.65514
1075	1.67117
1078.37	5.10316
1081.74	2.89104
1085.12	5.06087
1088.49	2.60484
1091.87	1.18115
1095.24	0.607178
1098.62	3.2977
1101.99	5.16728
1105.37	1.87616
1108.74	4.5744
1112.12	3.87015
1115.49	3.43776
1118.87	2.26953
1122.24	6.25348
1125.62	3.61479
1128.99	2.14601
1132.37	5.41568
1135.74	2.26459
1139.12	1.55017
1142.49	1.9287
1145.87	3.04872
1149.24	1.66553
1152.62	5.2861
1155.99	1.14203
1159.37	8.23131
1162.74	3.3672
1166.12	6.68219
1169.49	2.51361
1172.87	1.65709
1176.24	2.72046
1179.62	5.29634
1182.99	3.40517
1186.37	4.25957
1189.74	5.22604
1193.11	4.59538
1196.49	2.15823
1199.86	4.28667
1203.24	8.60883
1206.61	4.22798
1209.99	0.780609
1213.36	3.17235
1216.74	4.23624
1220.11	6.19869
1223.49	2.17819
1226.86	5.34699
1230.24	9.45389
1233.61	2.61951
1236.99	2.66873
1240.36	6.77046
1243.74	4.80666
1247.11	3.89636
1250.49	5.19678
1253.86	7.22009
1257.24	2.10686
1260.61	0.365952
1263.98	0.956741
1267.36	3.32619
1270.73	3.62649
1274.11	2.54155
1277.48	3.39829
1280.86	2.36308
1284.23	6.3437
1287.61	6.59003
1290.98	7.2838
1294.36	0.173935
1297.73	6.12404
1301.11	0.107529
1304.48	0.482468
