Measurement: Raman, 785 nm, unoriented, Raman Data Processed
Mineral: Ishikawaite
Rruff sample: R070496
Ideal chemistry: (U^4+^,Fe^2+^,Y^3+^)Nb^5+^O_4_
Locality: Standpipe Hill mines, Topsham, Sagadahoc County, Maine, USA
Source: Michael Scott
Description: Dark brown prismatic crystal
Raman shift (cm-1)	intensity
174.433	0
177.325	0.683594
180.218	20.9043
183.111	238.745
186.003	176.693
188.896	256.653
191.789	226.299
194.681	316.135
197.574	377.496
200.467	300.6
203.359	351.903
206.252	221.448
209.145	331.033
212.038	161.342
214.93	258.96
217.823	387.128
220.716	369.676
223.608	321.897
226.501	345.253
229.394	266.245
232.286	318.832
235.179	349.321
238.072	430.816
240.965	467.155
243.857	373.445
246.75	440.952
249.643	394.289
252.535	393.394
255.428	453.12
258.321	401.544
261.214	402.902
264.106	435.976
266.999	259.099
269.892	258.681
272.784	219.728
275.677	230.095
278.57	187.302
281.462	219.281
284.355	136.652
287.248	171.793
290.14	125.316
293.033	126.332
295.926	59.2315
298.819	113.393
301.711	72.1436
304.604	129.438
307.497	113.671
310.389	71.2647
313.282	1.72461
316.175	15.5059
319.067	50.1133
321.96	44.5156
324.853	16.3789
327.746	63.4795
330.638	67.2432
333.531	28.2754
336.424	62.5508
339.316	20.1348
342.209	46.2549
345.102	18.7383
347.995	48.3516
350.887	13.0078
353.78	12.543
356.673	1.31738
359.565	37.0547
362.458	103.035
365.351	15.1289
368.243	14.8359
371.136	164.967
374.029	32.835
376.921	88.6211
379.814	122.18
382.707	40.3623
385.6	31.7881
388.492	120.114
391.385	169.533
394.278	137.862
397.17	107.019
400.063	111.799
402.956	92.3057
405.849	127.489
408.741	122.995
411.634	103.076
414.527	127.805
417.419	98.4189
420.312	32.3701
423.205	18.042
426.097	63.1855
428.99	62.4502
431.883	82.7671
434.776	128.61
437.668	35.4429
440.561	118.732
443.454	104.904
446.346	20.6963
449.239	39.4067
452.132	74.6821
455.024	46.5347
457.917	92.9746
460.81	120.141
463.702	131.683
466.595	38.8398
469.488	87.9048
472.381	57.3389
475.273	120.971
478.166	129.031
481.059	110.509
483.951	165.804
486.844	98.7925
489.737	103.703
492.63	93.3003
495.522	51.0747
498.415	81.4404
501.308	23.1352
504.2	1.18311
507.093	68.6582
509.986	53.251
512.878	55.8906
515.771	4.0083
518.664	3.75342
521.557	29.6323
524.449	6.45019
527.342	42.0107
530.235	30.1963
533.127	23.0571
536.02	3.55469
538.913	11.0493
541.805	62.2578
544.698	14.4385
547.591	121.434
550.484	42.4917
553.376	176.762
556.269	145.792
559.162	97.0493
562.054	175.02
564.947	216.873
567.84	145.384
570.732	234.273
573.625	219.69
576.518	233.568
579.41	227.612
582.303	273.502
585.196	228.614
588.089	235.354
590.981	257.336
593.874	234.017
596.767	272.139
599.659	259.589
602.552	271.639
605.445	340.515
608.337	304.373
611.23	305.269
614.123	267.197
617.016	312.239
619.908	300.035
622.801	330.501
625.694	346.365
628.586	343.265
631.479	308.716
634.372	313.121
637.264	307.236
640.157	245.171
643.05	288.76
645.943	229.659
648.835	302.177
651.728	264.294
654.621	201.971
657.513	267.938
660.406	202.281
663.299	179.888
666.192	177.64
669.084	128.522
671.977	180.655
674.87	124.194
677.762	92.2915
680.655	56.1909
683.548	27.2773
686.44	63.3188
689.333	55.375
692.226	17.9829
695.119	24.648
698.011	5.01221
700.904	42.8648
703.797	6.0791
706.689	113.565
709.582	0.709473
712.475	7.05811
715.367	50.436
718.26	16.3613
721.153	13.48
724.045	42.9443
726.938	115.311
729.831	73.2075
732.724	83.2305
735.616	98.0791
738.509	188.949
741.402	228.339
744.294	254.423
747.187	309.335
750.08	373.327
752.972	419.736
755.865	472.952
758.758	531.737
761.651	660.164
764.543	682.795
767.436	750.056
770.329	789.06
773.221	899.978
776.114	882.164
779.007	972.953
781.899	985.624
784.792	1091.7
787.685	1081.66
790.578	1156.62
793.47	1134.67
796.363	1174.46
799.256	1083.01
802.148	1080.04
805.041	1047.91
807.934	1078.59
810.827	965.16
813.719	945.593
816.612	755.556
819.505	789.989
822.397	655.605
825.29	583.12
828.183	445.991
831.075	410.119
833.968	360.985
836.861	282.766
839.754	186.026
842.646	118.11
845.539	48.1294
848.432	105.335
851.324	14.8613
854.217	1.2876
857.11	25.8569
860.002	22.0439
862.895	2.21289
865.788	26.0742
868.681	42.2119
871.573	73.3354
874.466	76.793
877.359	88.8023
880.251	129.477
883.144	156.059
886.037	174.025
888.929	162.491
891.822	202.964
894.715	229.535
897.607	194.525
900.5	211.815
903.393	215.235
906.286	206.178
909.178	173.981
912.071	178.302
914.964	181.312
917.856	133.182
920.749	98.4758
923.642	60.3508
926.534	30.4136
929.427	54.49
932.32	7.69287
935.213	3.39551
938.105	4.60864
940.998	45.2749
943.891	14.0481
946.783	37.3984
949.676	16.3567
952.569	38.5869
955.462	25.0146
958.354	33.8127
961.247	87.2048
964.14	77.8823
967.032	111.187
969.925	118.393
972.818	125.689
975.71	153.85
978.603	185.142
981.496	214.087
984.389	236.27
987.281	228.21
990.174	269.613
993.067	270.777
995.959	327.749
998.852	270.832
1001.75	299.653
1004.64	278.373
1007.53	283.96
1010.42	268.998
1013.32	214.273
1016.21	261.351
1019.1	250.272
1021.99	234.147
1024.89	206.744
1027.78	221.234
1030.67	199.734
1033.56	197.361
1036.46	202.512
1039.35	162.435
1042.24	181.497
1045.13	155.069
1048.03	170.854
1050.92	136.352
1053.81	131.617
1056.71	134.377
1059.6	93.4061
1062.49	108.811
1065.38	105.833
1068.28	93.8723
1071.17	81.3171
1074.06	67.5571
1076.95	69.7778
1079.85	62.9778
1082.74	58.5054
1085.63	48.8621
1088.53	30.8914
1091.42	6.56641
1094.31	37.3574
1097.2	4.63428
1100.1	6.42236
1102.99	7.18726
1105.88	36.7434
1108.78	10.5415
1111.67	8.59521
1114.56	33.791
1117.45	11.197
1120.35	22.6433
1123.24	48.7676
1126.13	65.8245
1129.02	9.29346
1131.92	32.9907
1134.81	9.05566
1137.7	57.6677
1140.59	17.158
1143.49	18.3899
1146.38	26.3027
1149.27	20.0291
1152.16	8.07422
