Measurement: Raman, 532 nm, unoriented, Raman Data Processed
Mineral: Ishikawaite
Rruff sample: R070496
Ideal chemistry: (U^4+^,Fe^2+^,Y^3+^)Nb^5+^O_4_
Locality: Standpipe Hill mines, Topsham, Sagadahoc County, Maine, USA
Source: Michael Scott
Description: Dark brown prismatic crystal
Raman shift (cm-1)	intensity
162.209	0
165.101	35.8633
167.994	9.75977
170.887	343.602
173.779	388.846
176.672	227.844
179.565	138.451
182.458	54.0684
185.35	122.836
188.243	225.357
191.136	201.935
194.028	255.764
196.921	69.4883
199.814	144.56
202.706	75.7441
205.599	89.8926
208.492	156.74
211.385	101.285
214.277	69.4707
217.17	71.5644
220.063	56.541
222.955	156.518
225.848	141.973
228.741	178.731
231.633	310.658
234.526	207.941
237.419	105.924
240.311	242.685
243.204	273.861
246.097	446.785
248.99	381.647
251.882	232.912
254.775	314.268
257.668	234.277
260.56	293.621
263.453	285.85
266.346	259.295
269.238	176.115
272.131	250.004
275.024	256.877
277.917	109.314
280.809	129.516
283.702	128.428
286.595	138.062
289.487	215.178
292.38	20.9941
295.273	131.035
298.166	51.2402
301.058	56.6406
303.951	5.97461
306.844	23.8711
309.736	12.9766
312.629	40.293
315.522	75.334
318.414	180.904
321.307	237.969
324.2	172.562
327.092	201.363
329.985	72.7227
332.878	121.613
335.771	72.5918
338.663	73.9863
341.556	116.908
344.449	11.0352
347.341	54.6953
350.234	72.4844
353.127	214.268
356.019	218.67
358.912	252.059
361.805	162.244
364.698	39.9902
367.59	174.269
370.483	21.2051
373.376	96.0879
376.268	160.303
379.161	125.332
382.054	157.469
384.947	99.4473
387.839	138.935
390.732	92.4844
393.625	230.623
396.517	128.258
399.41	113.35
402.303	68.418
405.195	64.8965
408.088	71.3711
410.981	166.635
413.873	140.422
416.766	174.447
419.659	113.289
422.552	69.4746
425.444	63.6719
428.337	77.9688
431.23	140.434
434.122	110.859
437.015	143.988
439.908	121.701
442.8	224.871
445.693	103.885
448.586	176.096
451.479	199.06
454.371	157.965
457.264	213.945
460.157	241.147
463.049	206.434
465.942	60.7793
468.835	118.322
471.728	102.811
474.62	17.6289
477.513	23.6035
480.406	152.961
483.298	110.701
486.191	250.111
489.084	112.773
491.976	73.2812
494.869	76.2383
497.762	125.891
500.654	24.293
503.547	24.8184
506.44	27.1953
509.333	16.6699
512.225	139.168
515.118	44.709
518.011	96.7109
520.903	119.305
523.796	97.6504
526.689	1.80664
529.582	121.338
532.474	172.914
535.367	120.596
538.26	182.412
541.152	5.16992
544.045	169.902
546.938	201.709
549.83	198.967
552.723	86.166
555.616	25.3574
558.509	134.801
561.401	91.8379
564.294	99.3516
567.187	78.5859
570.079	224.562
572.972	186.022
575.865	206.834
578.757	185.357
581.65	38.5469
584.543	58.6562
587.436	53.0977
590.328	31.0586
593.221	198.551
596.114	205.834
599.006	158.309
601.899	172.902
604.792	197.66
607.684	199.885
610.577	214.846
613.47	239.416
616.362	100.356
619.255	107.768
622.148	95.4219
625.041	93.2852
627.933	49.1992
630.826	106.533
633.719	72.9648
636.611	35.5332
639.504	54.2578
642.397	87.6387
645.29	175.182
648.182	155.236
651.075	145.447
653.968	105.234
656.86	99.2441
659.753	105.371
662.646	55.6621
665.538	104.947
668.431	19.2363
671.324	136.24
674.217	47.4727
677.109	191.568
680.002	140.393
682.895	4.24805
685.787	22.4355
688.68	114.223
691.573	51.7539
694.466	35.3984
697.358	6.29492
700.251	15.1641
703.144	80.0644
706.036	76.1348
708.929	78.4785
711.822	6.80273
714.714	30.6641
717.607	99.6231
720.5	13.8496
723.393	6.875
726.285	14.5977
729.178	46.6133
732.071	85.0078
734.963	105.115
737.856	87.5547
740.749	90.1836
743.641	54.6543
746.534	185.941
749.427	226.394
752.319	184.644
755.212	210.016
758.105	326.664
760.998	438.394
763.89	336.022
766.783	267.744
769.676	438.568
772.568	523.951
775.461	534.488
778.354	563.986
781.246	645.07
784.139	720.623
787.032	739.191
789.925	816.996
792.817	729.519
795.71	671.619
798.603	661.99
801.495	732.678
804.388	710.566
807.281	800.576
810.173	675.359
813.066	634.734
815.959	607.648
818.852	510.924
821.744	405.885
824.637	404.213
827.53	324.92
830.422	359.182
833.315	236.258
836.208	113.768
839.101	16.1289
841.993	88.5898
844.886	10.8721
847.779	38.5488
850.671	111.864
853.564	3.68848
856.457	42.6777
859.349	24.4336
862.242	148.372
865.135	283.961
868.028	227.539
870.92	202.612
873.813	226.065
876.706	274.995
879.598	219.744
882.491	359.909
885.384	237.968
888.276	240.292
891.169	317.4
894.062	332.47
896.955	346.853
899.847	333.442
902.74	239.236
905.633	221.763
908.525	306.866
911.418	276.183
914.311	185.127
917.203	157.637
920.096	128.995
922.989	54.7402
925.881	98.6777
928.774	78.04
931.667	59.9424
934.56	17.4639
937.452	7.27148
940.345	10.5762
943.238	22.4111
946.13	3.68262
949.023	16.9951
951.916	7.82227
954.808	21.1055
957.701	88.3906
960.594	97.7822
963.487	83.2519
966.379	86.3506
969.272	166.724
972.165	181.75
975.057	180.668
977.95	176.889
980.843	189.205
983.736	207.454
986.628	243.387
989.521	222.039
992.414	168.84
995.306	274.546
998.199	162.394
1001.09	135.049
1003.98	196.609
1006.88	165.977
1009.77	202.952
1012.66	191.022
1015.55	203.318
1018.45	183.294
1021.34	78.3975
1024.23	59.9141
1027.13	234.084
1030.02	271.07
1032.91	147.875
1035.8	99.3662
1038.7	11.5449
1041.59	106.978
1044.48	116.026
1047.38	114.877
1050.27	136.833
1053.16	152.777
1056.05	162.947
1058.95	92.376
1061.84	123.295
1064.73	170.946
1067.62	170.747
1070.52	209.004
1073.41	111.838
1076.3	135.959
1079.19	145.053
1082.09	78.3682
1084.98	208.949
1087.87	102.591
1090.77	74.6172
1093.66	77.8857
1096.55	92.541
1099.44	129.129
1102.34	119.502
1105.23	27.7148
1108.12	57.1777
1111.01	18.333
1113.91	158.124
1116.8	63.6777
1119.69	41.1641
1122.59	37.3193
1125.48	31.1123
1128.37	88.4033
1131.26	36.1543
1134.16	46.1455
1137.05	82.3369
1139.94	98.1504
1142.83	54.582
1145.73	147.019
1148.62	65.4893
1151.51	39.1514
1154.4	100.517
1157.3	77.3506
1160.19	27.2637
1163.08	72.8877
1165.98	5.28027
1168.87	22.2227
1171.76	44.8525
1174.65	81.9189
1177.55	97.9072
1180.44	132.4
1183.33	136.949
1186.22	108.148
1189.12	163.828
1192.01	85.8311
1194.9	91.2481
1197.8	62.9385
1200.69	55.2393
1203.58	5.59863
1206.47	37.5059
1209.37	81.4082
1212.26	43.5684
1215.15	81.1406
1218.04	152.611
1220.94	185.246
1223.83	167.409
1226.72	147.743
1229.62	63.1641
1232.51	37.8857
1235.4	101.237
1238.29	68.7061
1241.19	26.999
1244.08	25.5059
1246.97	127.295
1249.86	71.124
1252.76	49.6855
1255.65	8.5752
1258.54	78.2051
1261.43	46.3135
1264.33	197.715
1267.22	154.7
1270.11	145.455
1273.01	99.167
1275.9	32.7227
1278.79	0.523438
1281.68	25.9473
1284.58	12.8809
