Measurement: Raman, 532 nm, unoriented, Raman Data Processed
Mineral: Isocubanite
Rruff sample: R090050
Ideal chemistry: Cu^1+^Fe^2+^Fe^3+^S^2-^_3_
Locality: Henderson #2 mine, Chibougamau, Quebec, Canada
Source: Lloyd Twaites LT1378
Description: The sample was obtained by heating cubanite, R061068. It was heated first at T = 200°C for a day, followed by T = 160°C for five weeks.
Measured chemistry: Cu_1.00_Fe_2.00_S_3.00_
Raman shift (cm-1)	intensity
155.35	0
158.242	0.099121
161.135	4.35815
164.028	1.56445
166.92	6.4173
169.813	16.7534
172.706	15.1144
175.598	11.8284
178.491	13.9917
181.384	12.522
184.277	7.89478
187.169	5.24707
190.062	7.84064
192.955	5.59467
195.847	5.95837
198.74	10.0413
201.633	1.35559
204.525	6.52362
207.418	5.10004
210.311	5.93896
213.204	0.718994
216.096	4.39032
218.989	1.3761
221.882	3.26349
224.774	8.36255
227.667	11.8479
230.56	5.96869
233.452	0.720276
236.345	4.84515
239.238	3.19568
242.131	5.73022
245.023	3.75214
247.916	3.66528
250.809	10.0874
253.701	10.1171
256.594	10.202
259.487	15.2811
262.38	17.147
265.272	22.0795
268.165	23.5259
271.058	22.4778
273.95	39.8984
276.843	48.8721
279.736	59.6121
282.628	79.4762
285.521	116.784
288.414	123.026
291.307	75.7861
294.199	28.5294
297.092	15.4381
299.985	8.98163
302.877	12.9058
305.77	11.6915
308.663	10.5461
311.555	12.9757
314.448	24.2361
317.341	15.6187
320.234	14.2316
323.126	4.11292
326.019	6.52423
328.912	3.49261
331.804	5.47205
334.697	8.25879
337.59	1.78516
340.483	9.17004
343.375	6.20715
346.268	15.6616
349.161	19.4082
352.053	15.8869
354.946	7.08179
357.839	8.27154
360.731	7.79748
363.624	5.79047
366.517	2.92792
369.41	4.71014
372.302	4.90399
375.195	1.19147
378.088	3.98798
380.98	4.4975
383.873	0.050537
386.766	0.174988
389.659	6.62756
392.551	3.40717
395.444	2.96301
398.337	1.80634
401.229	0.507813
404.122	3.94452
407.015	1.21063
409.907	3.78296
412.8	5.16986
415.693	0.626709
418.586	5.14014
421.478	5.58624
424.371	6.95984
427.264	8.83899
430.156	6.46002
433.049	7.90424
435.942	4.6911
438.834	8.0058
441.727	5.81104
444.62	6.92444
447.513	2.71985
450.405	8.73248
453.298	8.57831
456.191	9.27777
459.083	5.75555
461.976	1.6178
464.869	1.57166
467.762	5.11279
470.654	5.21612
473.547	6.73157
476.44	4.15295
479.332	5.52106
482.225	7.99237
485.118	5.36481
488.01	7.93475
490.903	1.14252
493.796	6.58521
496.688	7.60632
499.581	7.96039
502.474	10.1326
505.367	9.87109
508.259	4.79394
511.152	7.38879
514.045	5.10992
516.938	2.57397
519.83	1.89539
522.723	5.56702
525.616	0.33252
528.508	5.02777
531.401	3.75818
534.294	6.73706
537.186	5.16528
540.079	1.38867
542.972	1.9646
545.865	6.16833
548.757	9.52411
551.65	6.53388
554.543	7.97272
557.435	3.20953
560.328	0.838196
563.221	8.04266
566.114	9.18719
569.006	6.2644
571.899	1.34473
574.792	9.14392
577.684	5.53412
580.577	10.0366
583.47	3.414
586.362	5.27386
589.255	3.16833
592.148	2.62836
595.04	5.07495
597.933	4.10504
600.826	0.229248
603.719	5.28595
606.611	0.420105
609.504	2.14148
612.397	6.87042
615.289	1.75653
618.182	0.759399
621.075	1.13586
623.967	5.44568
626.86	1.25269
629.753	4.35895
632.646	5.80475
635.538	3.22705
638.431	8.57477
641.324	10.8995
644.216	3.39069
647.109	5.24353
650.002	0.701233
652.894	3.04358
655.787	3.93567
658.68	4.12769
661.573	10.42
664.465	9.55286
667.358	3.59644
670.251	5.46985
673.144	3.35962
676.036	0.487671
678.929	3.41821
681.822	7.08582
684.714	4.09558
687.607	1.87537
690.5	3.38281
693.392	6.78101
696.285	0.741455
699.178	7.35901
702.071	6.4978
704.963	10.4736
707.856	2.10242
710.749	5.87915
713.641	1.11609
716.534	9.75806
719.427	6.32019
722.319	4.69287
725.212	4.55652
728.105	4.9397
730.998	1.19653
733.89	2.01233
736.783	9.34277
739.676	1.2467
742.568	7.84106
745.461	7.66577
748.354	7.44202
751.246	2.6029
754.139	4.28247
757.032	4.32581
759.925	5.19006
762.817	8.61938
765.71	1.89441
768.603	7.28735
771.495	6.30249
774.388	1.01917
777.281	2.39123
780.173	2.98474
783.066	4.36646
785.959	3.32629
788.852	6.36438
791.744	3.53272
794.637	5.82666
797.53	3.79871
800.422	7.85425
803.315	9.97607
806.208	9.62622
809.101	12.0776
811.993	10.1416
814.886	8.89856
817.779	7.59485
820.671	7.81934
823.564	9.23572
826.457	12.861
829.35	9.20935
832.242	14.0693
835.135	11.6671
838.028	13.4102
840.92	6.31653
843.813	9.00391
846.706	4.27686
849.598	9.39636
852.491	8.63257
855.384	7.63281
858.277	0.123535
861.169	3.80444
864.062	6.78503
866.955	7.17358
869.847	4.36206
872.74	7.03345
875.633	0.420654
878.525	3.02722
881.418	1.91687
884.311	1.27588
887.204	5.47327
890.096	2.06628
892.989	1.35571
895.882	1.35364
898.774	7.38879
901.667	9.12524
904.56	9.33179
907.452	6.1637
910.345	6.22681
913.238	4.38721
916.131	9.54285
919.023	4.22668
921.916	5.28613
924.809	8.84668
927.701	7.30859
930.594	3.44873
933.487	7.57422
936.38	2.38782
939.272	10.2815
942.165	6.18396
945.058	5.83179
947.95	1.56689
950.843	1.00879
953.736	4.32141
956.629	3.90137
959.521	2.78125
962.414	0.749756
965.307	2.76917
968.199	1.98701
971.092	1.12732
973.985	8.76623
976.877	7.349
979.77	6.63379
982.663	8.26099
985.556	9.56238
988.448	1.97925
991.341	1.13635
994.234	6.31335
997.126	8.03918
1000.02	7.12622
1002.91	5.8595
1005.8	4.64185
1008.7	4.47144
1011.59	6.21594
1014.48	0.549561
1017.38	1.46619
1020.27	5.25977
1023.16	6.1792
1026.05	2.64368
1028.95	5.88135
1031.84	3.79504
1034.73	8.36816
1037.62	3.20178
1040.52	1.63757
1043.41	3.67248
1046.3	5.43689
1049.19	8.98291
1052.09	8.99951
1054.98	2.07422
1057.87	1.5592
1060.77	4.01001
1063.66	6.23584
1066.55	6.48523
1069.44	5.78552
1072.34	9.20752
1075.23	6.47656
1078.12	3.33496
1081.02	0.807617
1083.91	0.475952
1086.8	2.521
1089.69	6.05457
1092.59	12.5221
1095.48	5.35046
1098.37	7.52124
1101.26	5.11511
1104.16	9.39978
1107.05	7.5658
1109.94	12.3502
1112.83	14.0043
1115.73	14.3825
1118.62	6.97803
1121.51	8.10901
1124.4	3.07129
1127.3	12.9286
1130.19	8.18359
1133.08	6.07605
1135.98	8.5321
1138.87	4.77686
1141.76	4.42078
1144.65	6.91772
1147.55	5.34521
1150.44	3.78772
1153.33	6.04248
1156.22	4.07642
1159.12	5.73621
1162.01	0.109497
1164.9	4.71729
1167.8	2.2887
1170.69	4.02087
1173.58	1.9165
1176.47	8.62866
1179.37	6.30493
1182.26	5.34302
1185.15	1.82654
1188.05	5.67993
1190.94	2.94193
1193.83	0.218628
1196.72	5.1311
1199.62	4.29614
1202.51	2.7854
1205.4	4.62402
1208.29	6.95606
1211.19	0.214478
1214.08	4.43896
1216.97	1.23718
1219.87	4.0404
1222.76	1.47656
1225.65	0.338135
1228.54	1.57251
1231.43	4.11304
1234.33	3.39343
1237.22	0.172485
1240.11	5.07532
1243.01	5.06165
1245.9	6.73144
1248.79	5.21118
1251.68	9.82629
1254.58	6.67981
1257.47	8.99085
1260.36	4.64209
1263.26	0.365967
1266.15	7.15955
1269.04	6.18469
1271.93	6.20654
1274.83	5.97852
1277.72	0.595581
1280.61	9.54871
1283.5	3.62256
1286.4	3.04053
1289.29	0.99353
1292.18	1.11353
1295.08	4.26465
1297.97	2.28174
1300.86	0.010376
