Measurement: Raman, 785 nm, unoriented, Raman Data Processed
Mineral: Isokite
Rruff sample: R070526
Ideal chemistry: CaMgP^5+^O_4_F
Locality: Kjorrestad, near Bamle, Norway
Source: University of Arizona Mineral Museum
Description: Colorless crystals, associated with wagnerite, R050519.
Measured chemistry: Ca_1.00_Mg_1.00_(P_1.00_O_4_)(F_0.80_(OH)_0.20_)_Σ=1_ ; = light phase. The gray phase is wagnerite: Mg_2.00_(P_1.00_O_4_)(F_0.80_(OH)_0.20_)_Σ=1_
Raman shift (cm-1)	intensity
154.666	0
157.559	11.8458
160.451	36.2737
163.344	65.115
166.237	32.6527
169.129	58.676
172.022	55.2893
174.915	63.4563
177.807	68.9646
180.7	52.0122
183.593	47.8688
186.486	63.2576
189.378	48.3041
192.271	54.4804
195.164	26.6158
198.056	34.9026
200.949	27.5794
203.842	34.9591
206.734	76.4749
209.627	25.3105
212.52	27.6177
215.412	36.3678
218.305	44.0347
221.198	58.6893
224.091	58.6586
226.983	24.6266
229.876	25.0427
232.769	22.8519
235.661	6.90881
238.554	7.18823
241.447	30.9002
244.339	2.08643
247.232	33.4514
250.125	26.9758
253.018	35.6288
255.91	29.4083
258.803	20.8882
261.696	17.1533
264.588	32.7473
267.481	19.1729
270.374	2.68542
273.267	27.7052
276.159	4.90125
279.052	13.1139
281.945	9.776
284.837	1.83044
287.73	28.2159
290.623	12.9745
293.515	4.69617
296.408	22.0511
299.301	17.6446
302.193	4.82666
305.086	9.74841
307.979	25.9342
310.872	33.5195
313.764	29.3806
316.657	6.03613
319.55	15.9915
322.442	40.0531
325.335	17.6825
328.228	46.7293
331.12	14.0273
334.013	44.0028
336.906	21.6831
339.799	51.1173
342.691	62.1837
345.584	19.1691
348.477	45.4076
351.369	30.585
354.262	66.3297
357.155	36.8335
360.048	38.1036
362.94	58.9866
365.833	26.4401
368.726	38.4646
371.618	53.139
374.511	69.7492
377.404	53.6122
380.296	54.8272
383.189	21.4586
386.082	41.3782
388.974	47.1154
391.867	21.0041
394.76	33.004
397.653	25.2065
400.545	36.1819
403.438	37.7561
406.331	35.7478
409.223	46.7568
412.116	49.1101
415.009	83.7484
417.902	71.1843
420.794	116.425
423.687	132.467
426.58	123.216
429.472	56.1752
432.365	32.4476
435.258	41.8453
438.151	25.8989
441.043	16.7151
443.936	36.9491
446.829	38.4059
449.721	22.2048
452.614	25.6244
455.507	18.7412
458.399	25.5821
461.292	35.4832
464.185	10.8845
467.077	10.7161
469.97	3.20312
472.863	12.7108
475.756	5.16052
478.648	0.668945
481.541	14.5645
484.434	35.5051
487.326	3.6615
490.219	3.46228
493.112	0.457031
496.005	8.68567
498.897	32.4099
501.79	1.7312
504.683	6.13977
507.575	51.0308
510.468	14.4181
513.361	26.097
516.253	10.9164
519.146	5.49536
522.039	4.13965
524.932	38.0884
527.824	5.07178
530.717	26.8156
533.61	15.873
536.502	41.5382
539.395	49.0452
542.288	34.5868
545.18	42.4517
548.073	51.536
550.966	34.9177
553.859	41.5531
556.751	45.2013
559.644	38.7091
562.537	23.2628
565.429	36.1276
568.322	27.4283
571.215	69.2954
574.107	4.29748
577	40.6262
579.893	59.7628
582.785	32.4
585.678	46.3038
588.571	57.1348
591.464	42.2449
594.356	19.9871
597.249	25.9598
600.142	33.0243
603.034	52.7578
605.927	52.082
608.82	73.2826
611.712	19.2466
614.605	17.5845
617.498	14.1101
620.391	20.34
623.283	7.85779
626.176	39.1141
629.069	42.6295
631.961	27.1543
634.854	30.3246
637.747	69.223
640.639	33.1472
643.532	21.3314
646.425	18.958
649.318	25.2316
652.21	6.02808
655.103	5.95593
657.996	1.38525
660.888	13.5271
663.781	2.47437
666.674	41.3687
669.567	32.0244
672.459	21.6234
675.352	14.7632
678.245	12.22
681.137	10.9237
684.03	22.0818
686.923	1.94775
689.815	10.878
692.708	1.03711
695.601	1.22266
698.494	14.0043
701.386	18.3165
704.279	6.2688
707.172	12.8906
710.064	13.8671
712.957	17.9891
715.85	18.5632
718.742	6.52661
721.635	11.3295
724.528	20.0159
727.42	0.509399
730.313	14.3197
733.206	5.06348
736.099	11.7717
738.991	25.2483
741.884	19.5863
744.777	7.26502
747.669	27.6941
750.562	4.46655
753.455	16.0592
756.347	22.0006
759.24	37.0879
762.133	21.2554
765.026	43.2522
767.918	18.1912
770.811	4.9519
773.704	14.8524
776.596	19.006
779.489	27.9056
782.382	8.62122
785.274	48.8197
788.167	17.0896
791.06	17.8879
793.953	26.3041
796.845	32.916
799.738	44.062
802.631	17.4387
805.523	17.3879
808.416	32.5354
811.309	26.6243
814.202	35.797
817.094	21.2318
819.987	36.7961
822.88	44.3115
825.772	28.3612
828.665	25.1254
831.558	58.1203
834.45	43.9437
837.343	43.3143
840.236	21.0472
843.129	22.9835
846.021	38.1835
848.914	33.0356
851.807	20.8983
854.699	31.6497
857.592	11.3651
860.485	36.3732
863.377	38.0334
866.27	9.99933
869.163	2.03015
872.056	16.6489
874.948	19.5347
877.841	11.6331
880.734	17.6087
883.626	19.0403
886.519	25.7044
889.412	16.4904
892.304	13.0262
895.197	41.5778
898.09	9.75793
900.982	17.0886
903.875	13.7519
906.768	12.8194
909.661	31.7112
912.553	36.768
915.446	23.428
918.339	25.0471
921.231	18.1673
924.124	13.4459
927.017	24.4898
929.91	12.7949
932.802	33.3109
935.695	26.597
938.588	45.5301
941.48	62.721
944.373	131.086
947.266	181.492
950.159	282.742
953.051	389.555
955.944	456.439
958.837	282.385
961.729	131.643
964.622	72.0764
967.515	44.6058
970.407	23.1341
973.3	22.9068
976.193	8.646
979.086	4.52295
981.978	15.9726
984.871	6.29138
987.764	30.765
990.656	19.7467
993.549	15.711
996.442	14.4786
999.334	31.1678
1002.23	24.4126
1005.12	25.5286
1008.01	36.9758
1010.9	5.02881
1013.8	38.9723
1016.69	44.849
1019.58	33.9681
1022.48	15.5121
1025.37	22.99
1028.26	27.4615
1031.15	0.946167
1034.05	16.654
1036.94	25.7672
1039.83	17.3471
1042.72	12.4581
1045.62	13.1829
1048.51	10.9351
1051.4	10.3317
1054.3	35.238
1057.19	12.4388
1060.08	26.7517
1062.97	4.46863
1065.87	19.7089
1068.76	34.0142
1071.65	51.6054
1074.55	40.083
1077.44	30.244
1080.33	13.1242
1083.22	24.171
1086.12	42.2085
1089.01	38.9554
1091.9	33.1005
1094.79	17.5225
1097.69	4.43896
1100.58	22.1122
1103.47	29.9115
1106.36	32.6172
1109.26	31.8567
1112.15	39.8337
1115.04	38.9316
1117.93	29.2488
1120.83	16.2148
1123.72	30.7915
1126.61	12.9332
1129.51	1.08801
1132.4	11.9021
1135.29	28.9249
1138.18	16.9889
1141.08	9.8916
1143.97	17.0847
1146.86	30.464
1149.76	22.5273
1152.65	14.6985
1155.54	18.8394
1158.43	4.52319
1161.33	22.9764
1164.22	6.42481
1167.11	34.5453
1170	21.4644
1172.9	17.4285
1175.79	26.5245
1178.68	18.6746
1181.58	45.14
1184.47	43.0497
1187.36	44.7371
1190.25	36.8634
1193.14	29.4955
1196.04	3.02808
1198.93	31.6064
1201.82	48.877
1204.72	20.6025
1207.61	19.9376
1210.5	16.9709
1213.39	43.387
1216.29	49.4631
1219.18	66.0288
1222.07	36.208
1224.96	47.1849
1227.86	50.8984
1230.75	46.5432
1233.64	47.2224
1236.54	34.7227
1239.43	32.2284
1242.32	41.1083
1245.21	48.9648
1248.11	40.6138
1251	3.21057
1253.89	36.4237
1256.79	49.3011
1259.68	30.148
1262.57	6.28332
