Measurement: Raman, 532 nm, unoriented, Raman Data Processed
Mineral: Isokite
Rruff sample: R070526
Ideal chemistry: CaMgP^5+^O_4_F
Locality: Kjorrestad, near Bamle, Norway
Source: University of Arizona Mineral Museum
Description: Colorless crystals, associated with wagnerite, R050519.
Measured chemistry: Ca_1.00_Mg_1.00_(P_1.00_O_4_)(F_0.80_(OH)_0.20_)_Σ=1_ ; = light phase. The gray phase is wagnerite: Mg_2.00_(P_1.00_O_4_)(F_0.80_(OH)_0.20_)_Σ=1_
Raman shift (cm-1)	intensity
153.048	0
155.941	24.8606
158.833	26.3621
161.726	16.3022
164.619	27.0326
167.512	33.8512
170.404	24.0507
173.297	0.505096
176.19	29.5738
179.082	13.4006
181.975	17.7804
184.868	29.2303
187.761	28.336
190.653	0.313538
193.546	14.3045
196.439	0.179596
199.331	0.240875
202.224	13.7318
205.117	31.8843
208.009	21.0417
210.902	8.66519
213.795	5.08008
216.688	1.88821
219.58	4.45105
222.473	16.0822
225.366	2.11523
228.258	25.328
231.151	9.17392
234.044	17.4703
236.936	12.5305
239.829	4.68317
242.722	0.314026
245.614	11.8414
248.507	31.2761
251.4	27.3581
254.293	17.036
257.185	30.7904
260.078	17.257
262.971	25.9684
265.863	43.537
268.756	55.288
271.649	50.5183
274.541	49.7538
277.434	46.1795
280.327	14.1882
283.22	17.4318
286.112	16.8892
289.005	5.45447
291.898	11.0858
294.79	25.1147
297.683	12.5416
300.576	6.33539
303.469	4.71191
306.361	28.7326
309.254	4.63834
312.147	25.9813
315.039	5.53107
317.932	5.16205
320.825	17.3431
323.717	14.3184
326.61	8.67004
329.503	21.3964
332.396	10.8592
335.288	8.8241
338.181	9.45477
341.074	17.3076
343.966	18.132
346.859	11.5127
349.752	7.70725
352.644	13.2881
355.537	36.8114
358.43	12.7599
361.322	22.3143
364.215	24.6135
367.108	13.9504
370.001	26.298
372.893	11.867
375.786	32.993
378.679	11.8011
381.572	10.9033
384.464	11.7579
387.357	21.8227
390.25	6.31491
393.142	7.55298
396.035	13.1579
398.928	24.1261
401.82	29.1578
404.713	21.8481
407.606	20.902
410.498	24.1238
413.391	29.3596
416.284	56.5843
419.177	59.3263
422.069	115.442
424.962	98.5273
427.855	90.5636
430.747	61.4535
433.64	54.2215
436.533	24.2369
439.425	31.2781
442.318	11.7993
445.211	36.4672
448.104	32.8395
450.996	48.6248
453.889	56.5153
456.782	69.2973
459.674	54.9176
462.567	42.0697
465.46	20.9342
468.353	7.64209
471.245	15.0749
474.138	5.63373
477.031	10.2092
479.923	10.2835
482.816	18.2557
485.709	3.66827
488.601	20.813
491.494	12.1506
494.387	17.7339
497.279	0.732391
500.172	28.466
503.065	14.6523
505.958	11.3964
508.85	10.343
511.743	6.04193
514.636	12.9272
517.528	19.538
520.421	12.2189
523.314	3.41257
526.207	24.6893
529.099	17.0391
531.992	15.5542
534.885	17.8919
537.777	26.813
540.67	15.8937
543.563	33.8463
546.455	33.2259
549.348	31.9124
552.241	22.51
555.134	27.8309
558.026	34.6651
560.919	8.99533
563.812	41.3272
566.704	13.1564
569.597	17.7252
572.49	34.4731
575.382	26.1675
578.275	21.9611
581.168	44.9291
584.061	23.0825
586.953	21.0218
589.846	28.9392
592.739	25.3623
595.631	25.3578
598.524	41.6225
601.417	46.8266
604.309	64.534
607.202	66.5046
610.095	41.5355
612.987	27.735
615.88	3.5155
618.773	20.924
621.666	6.42859
624.558	22.8207
627.451	5.40994
630.344	9.42752
633.236	28.9886
636.129	9.72885
639.022	17.3122
641.915	14.5217
644.807	30.9443
647.7	6.35446
650.593	7.69369
653.485	13.1213
656.378	15.5362
659.271	23.8414
662.163	18.0328
665.056	23.2528
667.949	27.7418
670.842	20.4396
673.734	12.6523
676.627	17.4429
679.52	4.05746
682.412	14.1292
685.305	19.5621
688.198	14.8289
691.091	4.66
693.983	0.32608
696.876	12.8482
699.769	10.7452
702.661	10.8131
705.554	10.2044
708.447	4.50678
711.339	14.0059
714.232	7.77765
717.125	15.4509
720.018	4.04193
722.91	6.71204
725.803	17.4592
728.696	16.1492
731.588	10.5902
734.481	12.2988
737.374	7.44037
740.266	10.1786
743.159	6.01114
746.052	12.888
748.944	7.14746
751.837	21.8122
754.73	33.7927
757.623	9.38559
760.515	22.4182
763.408	1.33487
766.301	15.6494
769.193	7.56888
772.086	5.46493
774.979	21.8989
777.871	0.02243
780.764	14.7206
783.657	9.32758
786.55	15.3021
789.442	12.8484
792.335	9.01581
795.228	19.7191
798.12	21.9337
801.013	11.3764
803.906	16.7327
806.798	22.688
809.691	27.6154
812.584	26.2516
815.477	33.2718
818.369	4.91898
821.262	23.8613
824.155	22.0344
827.047	24.8507
829.94	19.3572
832.833	25.1571
835.726	27.8607
838.618	4.45956
841.511	16.0052
844.404	30.8986
847.296	8.68378
850.189	24.7101
853.082	21.6695
855.975	19.6455
858.867	16.6856
861.76	6.64816
864.653	22.5115
867.545	28.7161
870.438	5.43378
873.331	1.15289
876.223	4.16879
879.116	2.42172
882.009	16.75
884.902	6.86917
887.794	0.64505
890.687	4.69949
893.58	17.7559
896.472	11.7974
899.365	12.7205
902.258	0.570343
905.15	12.5326
908.043	16.9699
910.936	27.6575
913.828	31.1967
916.721	16.3173
919.614	18.2183
922.507	18.9802
925.399	37.0186
928.292	16.8778
931.185	43.5879
934.077	19.3609
936.97	44.5114
939.863	67.8577
942.755	107.141
945.648	174.385
948.541	309.471
951.434	441.567
954.326	518.741
957.219	448.418
960.112	228.248
963.004	97.697
965.897	32.5245
968.79	19.9382
971.683	4.09235
974.575	26.163
977.468	12.0376
980.361	3.48071
983.253	18.5813
986.146	10.9651
989.039	14.5782
991.931	14.397
994.824	18.2994
997.717	17.819
1000.61	26.0087
1003.5	21.8578
1006.39	25.8414
1009.29	15.3995
1012.18	15.7035
1015.07	40.762
1017.97	42.132
1020.86	35.9071
1023.75	17.7324
1026.64	9.07721
1029.54	7.02579
1032.43	7.45596
1035.32	28.0805
1038.21	6.41135
1041.11	9.78442
1044	2.75125
1046.89	25.0712
1049.79	9.04098
1052.68	4.06369
1055.57	11.3912
1058.46	21.5898
1061.36	8.73084
1064.25	41.5892
1067.14	39.861
1070.03	52.0778
1072.93	38.1294
1075.82	33.3553
1078.71	30.7246
1081.61	24.2104
1084.5	32.8837
1087.39	26.2482
1090.28	38.9007
1093.18	43.8596
1096.07	45.5927
1098.96	37.0005
1101.85	34.3718
1104.75	44.1937
1107.64	41.8442
1110.53	29.5865
1113.42	53.0566
1116.32	39.3373
1119.21	23.6137
1122.1	32.1327
1125	33.7618
1127.89	16.7523
1130.78	21.5803
1133.67	27.1105
1136.57	9.74802
1139.46	2.15381
1142.35	14.5948
1145.24	16.6845
1148.14	20.6372
1151.03	19.5414
1153.92	3.6839
1156.82	9.08087
1159.71	5.33472
1162.6	6.37472
1165.49	4.50937
1168.39	14.5904
1171.28	17.7829
1174.17	10.3344
1177.06	12.287
1179.96	1.80521
1182.85	25.9927
1185.74	25.4675
1188.63	34.7523
1191.53	24.5401
1194.42	26.0247
1197.31	23.4844
1200.21	4.4975
1203.1	12.8304
1205.99	10.6271
1208.88	13.9094
1211.78	31.3256
1214.67	9.6619
1217.56	15.8419
1220.45	28.6515
1223.35	22.2176
1226.24	25.711
1229.13	28.2674
1232.03	19.3844
1234.92	18.9186
1237.81	25.0334
1240.7	33.0488
1243.6	21.0356
1246.49	33.251
1249.38	26.2423
1252.28	51.0737
1255.17	43.0757
1258.06	29.3145
1260.95	22.1024
1263.85	35.0128
1266.74	22.8872
1269.63	16.7595
1272.52	22.0896
1275.42	2.66974
1278.31	7.90228
1281.2	21.0685
1284.09	24.6388
