Measurement: Raman, 532 nm, unoriented, Raman Data Processed
Mineral: Ixiolite
Rruff sample: R070289
Ideal chemistry: (Ta^5+^,Mn^2+^,Nb^5+^)O_2_
Locality: Voroni Tundra, Kola Peninsula, Russia
Source: Michael Scott
Description: Semimetallic black crystal with internal brown hints, associated with quartz, spodumene and mica
Raman shift (cm-1)	intensity
156.411	0
159.304	7.18002
162.197	23.1621
165.09	1.58784
167.982	8.72178
170.875	62.4176
173.768	54.1532
176.66	30.6257
179.553	2.97649
182.446	4.54033
185.339	19.0321
188.231	0.06789
191.124	27.1254
194.017	11.7972
196.909	27.7482
199.802	17.6502
202.695	31.1912
205.587	54.1224
208.48	69.3025
211.373	31.4722
214.266	59.5632
217.158	42.2237
220.051	56.4305
222.944	66.2014
225.836	44.8906
228.729	69.8012
231.622	72.7072
234.514	52.992
237.407	66.3883
240.3	53.1702
243.192	60.8071
246.085	25.8396
248.978	75.3217
251.871	27.9039
254.763	68.6006
257.656	34.1809
260.549	62.8062
263.441	51.8313
266.334	58.0999
269.227	53.54
272.12	77.4113
275.012	54.0415
277.905	39.3534
280.798	32.7556
283.69	88.2201
286.583	58.9272
289.476	47.3031
292.368	56.8575
295.261	67.2219
298.154	47.6806
301.046	81.786
303.939	29.3048
306.832	39.2145
309.725	43.0297
312.617	29.1561
315.51	52.4321
318.403	9.51012
321.295	10.6829
324.188	3.7052
327.081	0.613399
329.974	9.15042
332.866	4.94207
335.759	11.9807
338.652	13.462
341.544	9.27451
344.437	4.69266
347.33	4.13059
350.223	10.4239
353.115	53.712
356.008	33.4447
358.901	26.1958
361.793	29.559
364.686	51.8903
367.579	33.6839
370.471	58.4511
373.364	53.3088
376.257	89.2178
379.149	27.6763
382.042	13.0009
384.935	76.7911
387.828	27.2307
390.72	49.6645
393.613	29.6112
396.506	2.13757
399.398	25.581
402.291	38.4051
405.184	7.61172
408.077	25.2313
410.969	10.2365
413.862	0.565844
416.755	25.1615
419.647	27.2724
422.54	33.8618
425.433	21.8918
428.325	25.3344
431.218	19.5395
434.111	29.907
437.003	21.8585
439.896	9.82391
442.789	35.4039
445.682	43.4235
448.574	7.33547
451.467	1.49389
454.36	32.0121
457.252	22.1837
460.145	20.3045
463.038	44.7804
465.93	10.9899
468.823	16.1256
471.716	4.9998
474.609	47.8188
477.501	23.4005
480.394	49.5724
483.287	18.9499
486.179	40.0028
489.072	31.6637
491.965	5.64492
494.858	48.1328
497.75	34.8071
500.643	33.7876
503.536	27.6464
506.428	20.8514
509.321	20.0176
512.214	22.8207
515.106	0.911357
517.999	3.28844
520.892	0.115044
523.784	37.3371
526.677	3.8056
529.57	1.55982
532.463	11.4755
535.355	14.6861
538.248	8.74799
541.141	1.46912
544.033	18.2381
546.926	12.8181
549.819	14.608
552.712	4.63032
555.604	12.1159
558.497	8.35266
561.39	23.1608
564.282	21.9756
567.175	24.2876
570.068	45.3216
572.96	30.7578
575.853	2.84074
578.746	51.4835
581.639	53.5859
584.531	33.2663
587.424	35.0109
590.317	12.3879
593.209	31.2178
596.102	36.7662
598.995	14.7172
601.888	48.4225
604.78	61.1281
607.673	19.795
610.566	62.7169
613.458	52.5017
616.351	35.8334
619.244	51.5325
622.136	27.136
625.029	16.4332
627.922	27.8592
630.814	32.5608
633.707	48.9102
636.6	37.2958
639.493	4.47356
642.385	67.6256
645.278	28.2899
648.171	59.3371
651.063	37.2238
653.956	47.8884
656.849	53.3467
659.741	3.27475
662.634	14.0035
665.527	43.2809
668.42	25.1936
671.312	32.4887
674.205	17.1377
677.098	40.5804
679.99	34.0985
682.883	59.6434
685.776	15.3127
688.668	29.4581
691.561	7.166
694.454	20.5228
697.347	1.24541
700.239	2.22314
703.132	0.928203
706.025	16.1358
708.917	2.16985
711.81	0.981867
714.703	5.35283
717.596	7.41867
720.488	6.47663
723.381	14.074
726.274	18.9226
729.166	0.92774
732.059	4.6546
734.952	9.83919
737.844	4.27822
740.737	43.4686
743.63	34.4881
746.523	20.124
749.415	45.0998
752.308	44.682
755.201	69.4699
758.093	84.0631
760.986	90.7029
763.879	132.236
766.771	115.668
769.664	149.236
772.557	147.279
775.45	144.622
778.342	135.809
781.235	168.162
784.128	113.027
787.02	156.492
789.913	153.475
792.806	177.029
795.698	144.651
798.591	150.301
801.484	158.841
804.377	160.632
807.269	154.263
810.162	184.755
813.055	191.036
815.947	206.772
818.84	173.305
821.733	197.863
824.625	153.881
827.518	204.785
830.411	191.79
833.304	278.965
836.196	185.805
839.089	230.552
841.982	286.763
844.874	257.496
847.767	282.744
850.66	297.92
853.553	309.562
856.445	349.765
859.338	353.311
862.231	336.006
865.123	333.7
868.016	290.229
870.909	277.835
873.801	205.907
876.694	173.024
879.587	136.156
882.48	110.288
885.372	49.6829
888.265	32.775
891.158	14.7015
894.05	24.3366
896.943	19.5669
899.836	1.97743
902.729	3.65537
905.621	11.6567
908.514	5.39566
911.407	18.1826
914.299	6.66979
917.192	1.87143
920.085	17.1004
922.977	0.498677
925.87	41.8675
928.763	3.05894
931.655	36.484
934.548	20.6148
937.441	38.4619
940.334	48.3698
943.226	65.528
946.119	65.6719
949.012	63.1713
951.904	67.3664
954.797	59.4652
957.69	65.3082
960.582	45.5547
963.475	59.2155
966.368	74.3362
969.261	61.4298
972.153	31.8276
975.046	30.533
977.939	42.5502
980.831	30.4431
983.724	30.8439
986.617	18.6394
989.51	31.2804
992.402	21.5198
995.295	16.9364
998.188	21.0094
1001.08	28.0255
1003.97	22.8044
1006.87	20.6317
1009.76	31.74
1012.65	46.0245
1015.54	26.2353
1018.44	19.0495
1021.33	44.1222
1024.22	38.9402
1027.12	16.1126
1030.01	24.7792
1032.9	41.6178
1035.79	10.813
1038.68	18.848
1041.58	24.5585
1044.47	8.2424
1047.36	41.3855
1050.26	45.0255
1053.15	5.999
1056.04	25.6209
1058.93	14.5429
1061.83	25.4953
1064.72	18.8655
1067.61	29.1789
1070.51	7.95134
1073.4	4.4049
1076.29	12.2277
1079.18	26.8964
1082.08	29.4885
1084.97	26.3268
1087.86	33.0574
1090.75	26.055
1093.65	36.6113
1096.54	22.2021
1099.43	34.4807
1102.33	22.498
1105.22	12.015
1108.11	23.6243
1111	40.9783
1113.9	12.2709
1116.79	16.8617
1119.68	7.06413
1122.57	4.48542
1125.47	28.367
1128.36	1.2462
1131.25	11.814
1134.14	16.5615
1137.04	18.0509
1139.93	30.1808
1142.82	29.274
1145.71	15.4534
1148.61	8.55374
1151.5	27.9829
1154.39	8.90542
1157.29	23.3584
1160.18	21.1665
1163.07	12.8125
1165.96	19.9505
1168.86	15.6602
1171.75	20.6402
1174.64	18.5961
1177.54	27.9451
1180.43	3.65231
1183.32	23.3969
1186.21	20.5775
1189.11	56.4389
1192	32.1165
1194.89	3.26047
1197.78	30.9691
1200.68	32.5379
1203.57	28.2533
1206.46	11.9156
1209.36	21.4388
1212.25	19.0135
1215.14	30.9312
1218.03	27.0409
1220.93	29.0419
1223.82	42.1189
1226.71	7.93034
1229.6	1.9164
1232.5	25.153
1235.39	39.6031
1238.28	2.23982
1241.17	35.7631
1244.07	31.2413
1246.96	30.6892
1249.85	26.5474
1252.74	28.6998
1255.64	1.91232
1258.53	12.7783
1261.42	24.5212
1264.32	29.5705
1267.21	18.3693
1270.1	20.7053
1272.99	21.8479
1275.89	0.423679
1278.78	3.31184
1281.67	7.0138
1284.57	7.14332
1287.46	13.1459
1290.35	54.3382
1293.24	16.154
1296.14	21.0035
1299.03	32.1032
1301.92	17.3537
1304.81	14.2262
1307.71	6.04288
1310.6	0.087283
