Measurement: Raman, 785 nm, unoriented, Raman Data Processed
Mineral: Ixiolite
Rruff sample: R070495
Ideal chemistry: (Ta^5+^,Mn^2+^,Nb^5+^)O_2_
Locality: Alto Ligonha pegmatite, Alto Ligonha District, Zambezia Province, Mozambique
Source: Michael Scott
Description: Black submetallic grain
Raman shift (cm-1)	intensity
165.272	0
168.165	40.6101
171.058	72.9619
173.95	44.419
176.843	3.47217
179.736	59.7351
182.629	33.7136
185.521	16.4236
188.414	44.0994
191.307	69.1921
194.199	59.4785
197.092	53.9946
199.985	20.6062
202.877	55.1577
205.77	45.7383
208.663	13.6003
211.555	35.8643
214.448	22.8498
217.341	71.4319
220.234	80.6465
223.126	75.3374
226.019	102.994
228.912	83.3401
231.804	123.899
234.697	76.8301
237.59	111.342
240.482	145.214
243.375	170.622
246.268	100.244
249.161	108.178
252.053	109.684
254.946	104.596
257.839	107.555
260.731	112.799
263.624	114.665
266.517	137.851
269.409	112.694
272.302	172.41
275.195	157.203
278.088	192.618
280.98	167.501
283.873	230.361
286.766	228.705
289.658	183.858
292.551	117.321
295.444	191.547
298.337	154.438
301.229	141.024
304.122	83.2219
307.015	92.437
309.907	78.9241
312.8	54.6765
315.693	69.5054
318.585	12.4155
321.478	43.9001
324.371	73.1052
327.264	53.2188
330.156	50.574
333.049	3.49902
335.942	9.47974
338.834	42.7468
341.727	25.4871
344.62	5.98486
347.512	16.2791
350.405	19.7996
353.298	20.7029
356.19	8.31982
359.083	16.6467
361.976	32.542
364.869	0.737549
367.761	24.0068
370.654	23.387
373.547	40.1921
376.439	64.8149
379.332	70.1343
382.225	55.2507
385.118	72.5447
388.01	65.5564
390.903	77.7656
393.796	73.2258
396.688	52.302
399.581	113.312
402.474	89.1499
405.366	124.244
408.259	112.946
411.152	135.498
414.045	117.343
416.937	81.0017
419.83	101.807
422.723	46.5354
425.615	47.3062
428.508	56.0708
431.401	60.9683
434.293	52.4582
437.186	44.2502
440.079	53.001
442.971	44.5142
445.864	27.9961
448.757	26.9932
451.65	56.273
454.542	23.3921
457.435	21.7205
460.328	33.03
463.22	59.4409
466.113	67.7778
469.006	51.9985
471.899	67.0957
474.791	37.8484
477.684	22.1311
480.577	58.9866
483.469	13.8975
486.362	99.5347
489.255	48.8586
492.147	80.4434
495.04	54.6003
497.933	19.6196
500.825	86.5193
503.718	50.3809
506.611	73.4688
509.504	56.9861
512.396	31.7075
515.289	17.8284
518.182	34.8315
521.074	48.8164
523.967	41.29
526.86	14.4946
529.753	21.8491
532.645	26.3528
535.538	27.4297
538.431	12.1687
541.323	4.47583
544.216	14.5364
547.109	2.16065
550.001	44.0166
552.894	0.050781
555.787	23.1743
558.679	7.75659
561.572	38.7129
564.465	37.2241
567.358	28.8074
570.25	56.1589
573.143	21.3398
576.036	14.4175
578.928	47.189
581.821	34.6213
584.714	53.7463
587.606	76.519
590.499	47.8684
593.392	23.6282
596.284	21.207
599.177	51.7485
602.07	50.5708
604.963	65.0644
607.855	72.4458
610.748	69.803
613.641	8.22388
616.533	18.4719
619.426	16.3108
622.319	65.2217
625.212	25.5315
628.104	42.1533
630.997	17.1719
633.89	44.6428
636.782	54.3657
639.675	46.2363
642.568	38.1973
645.46	25.7761
648.353	42.4749
651.246	61.175
654.139	59.6963
657.031	44.9014
659.924	52.8049
662.817	63.895
665.709	45.8081
668.602	80.5544
671.495	89.6196
674.388	81.0459
677.28	80.2114
680.173	75.5044
683.066	85.51
685.958	68.5713
688.851	78.3547
691.744	59.677
694.636	38.4312
697.529	22.9331
700.422	45.7102
703.314	0.056396
706.207	26.7744
709.1	25.894
711.993	26.8406
714.885	11.1191
717.778	36.4199
720.671	3.80518
723.563	26.4744
726.456	31.3101
729.349	13.637
732.241	29.1179
735.134	17.1516
738.027	29.094
740.92	0.604736
743.812	25.0908
746.705	25.231
749.598	65.3706
752.49	14.0046
755.383	75.7647
758.276	55.6753
761.168	49.3518
764.061	45.8889
766.954	71.971
769.847	69.5046
772.739	109.819
775.632	68.1304
778.525	50.1016
781.417	65.0325
784.31	84.0171
787.203	84.5671
790.096	99.8953
792.988	57.0535
795.881	117.316
798.774	94.1221
801.666	104.7
804.559	101.704
807.452	165.609
810.344	172.269
813.237	160.16
816.13	200.769
819.023	206.676
821.915	195.163
824.808	241.807
827.701	245.167
830.593	254.305
833.486	332.06
836.379	350.912
839.271	361.541
842.164	354.625
845.057	385.778
847.949	424.423
850.842	443.52
853.735	453.844
856.628	448.24
859.52	461.048
862.413	496.387
865.306	539.535
868.198	503.539
871.091	476.842
873.984	442.141
876.876	409.314
879.769	371.131
882.662	351.294
885.555	265.365
888.447	203.834
891.34	123.293
894.233	73.5938
897.125	14.5499
900.018	20.2919
902.911	16.7528
905.803	18.496
908.696	6.36035
911.589	12.2722
914.482	4.49963
917.374	23.278
920.267	20.0392
923.16	0.059814
926.052	7.76172
928.945	29.5574
931.838	25.5852
934.731	36.1787
937.623	24.8462
940.516	13.1876
943.409	42.707
946.301	69.0804
949.194	38.4543
952.087	62.28
954.979	68.0076
957.872	74.5933
960.765	69.7882
963.658	41.4731
966.55	85.8795
969.443	58.2612
972.336	82.876
975.228	49.0393
978.121	59.7126
981.014	36.0646
983.906	47.0812
986.799	57.2462
989.692	28.219
992.585	31.986
995.477	20.2543
998.37	49.2911
1001.26	28.6365
1004.15	10.2165
1007.05	60.8059
1009.94	54.8404
1012.83	38.0768
1015.73	15.8405
1018.62	22.1868
1021.51	33.0968
1024.4	40.4971
1027.3	53.6621
1030.19	20.6787
1033.08	34.3436
1035.97	42.0344
1038.87	21.8648
1041.76	19.9506
1044.65	26.9021
1047.55	33.1702
1050.44	13.3565
1053.33	21.1854
1056.22	2.88147
1059.12	8.34387
1062.01	33.689
1064.9	6.02014
1067.8	14.0525
1070.69	43.0443
1073.58	43.231
1076.47	24.4213
1079.37	12.9606
1082.26	23.5967
1085.15	21.2618
1088.04	19.6436
1090.94	0.497314
1093.83	12.5253
1096.72	14.4496
1099.61	4.20459
1102.51	12.3611
1105.4	33.9528
1108.29	12.5841
1111.18	14.8325
1114.08	4.87561
1116.97	12.4537
1119.86	33.7609
1122.76	45.366
1125.65	2.14996
1128.54	11.6134
1131.43	10.8462
1134.33	1.177
1137.22	22.9507
1140.11	31.2433
1143.01	24.8101
1145.9	30.1311
1148.79	32.6644
1151.68	19.2118
1154.58	5.84949
1157.47	2.36365
1160.36	33.3804
1163.25	17.79
1166.15	21.6645
1169.04	0.137817
1171.93	23.8951
1174.83	11.285
1177.72	10.4226
1180.61	16.5743
1183.5	27.1189
1186.39	5.24945
1189.29	12.8374
1192.18	11.1834
1195.07	31.1957
1197.97	18.5728
1200.86	12.9988
1203.75	14.0501
1206.64	38.7372
1209.54	3.9491
1212.43	6.69525
1215.32	31.3419
1218.21	6.45001
1221.11	12.3658
1224	34.1888
1226.89	16.7468
1229.79	4.77356
1232.68	17.4798
1235.57	38.4226
1238.46	31.2188
1241.36	17.0553
1244.25	14.5969
1247.14	9.87128
1250.04	10.619
1252.93	0.217529
1255.82	0.105896
1258.71	12.4865
1261.61	15.0955
1264.5	13.7863
