Measurement: Raman, 532 nm, unoriented, Raman Data Processed
Mineral: Ixiolite
Rruff sample: R070495
Ideal chemistry: (Ta^5+^,Mn^2+^,Nb^5+^)O_2_
Locality: Alto Ligonha pegmatite, Alto Ligonha District, Zambezia Province, Mozambique
Source: Michael Scott
Description: Black submetallic grain
Raman shift (cm-1)	intensity
157.387	0
160.28	4.08557
163.173	70.0571
166.065	21.8936
168.958	3.90674
171.851	10.2313
174.744	47.2224
177.636	11.7673
180.529	7.1864
183.422	29.7677
186.314	15.4799
189.207	23.1623
192.1	44.8844
194.993	41.3123
197.885	26.2342
200.778	57.8939
203.671	42.1306
206.563	39.6997
209.456	17.666
212.349	42.1964
215.241	54.1401
218.134	31.8651
221.027	29.4913
223.919	54.9813
226.812	12.6039
229.705	35.2212
232.598	6.77515
235.49	41.0433
238.383	26.5183
241.276	27.1058
244.168	41.0946
247.061	32.8463
249.954	4.9353
252.846	21.257
255.739	19.4801
258.632	30.8053
261.525	34.262
264.417	17.7931
267.31	29.9087
270.203	50.1041
273.095	57.9407
275.988	75.5413
278.881	64.4019
281.774	57.7937
284.666	69.3563
287.559	52.6691
290.452	57.6133
293.344	73.5184
296.237	35.3501
299.13	45.8033
302.022	19.7339
304.915	39.6398
307.808	62.9431
310.7	17.1887
313.593	79.4484
316.486	28.2602
319.379	18.7932
322.271	74.5569
325.164	28.1086
328.057	23.8485
330.949	17.2929
333.842	4.45349
336.735	12.7321
339.627	8.63525
342.52	3.61707
345.413	7.71643
348.306	37.8998
351.198	20.2368
354.091	32.0851
356.984	12.8385
359.876	0.362793
362.769	32.329
365.662	21.1572
368.555	32.2647
371.447	29.0219
374.34	45.0382
377.233	46.048
380.125	43.1559
383.018	11.3536
385.911	17.8433
388.803	27.6626
391.696	75.1041
394.589	31.0192
397.481	19.3092
400.374	38.227
403.267	49.6923
406.16	43.1276
409.052	54.717
411.945	80.9031
414.838	40.5106
417.73	51.0894
420.623	40.9023
423.516	33.7201
426.409	8.40552
429.301	37.4193
432.194	7.89307
435.087	15.5105
437.979	10.5177
440.872	11.2416
443.765	25.5758
446.657	10.8271
449.55	0.66626
452.443	16.1669
455.336	33.3983
458.228	13.4251
461.121	30.6785
464.014	14.5538
466.906	61.1244
469.799	30.498
472.692	16.7333
475.584	33.4085
478.477	22.3383
481.37	16.4485
484.263	26.4855
487.155	33.8303
490.048	44.7411
492.941	17.39
495.833	12.156
498.726	4.07056
501.619	19.9858
504.512	50.0931
507.404	28.7736
510.297	45.6237
513.19	19.7207
516.082	37.7533
518.975	35.1145
521.868	46.0975
524.76	34.968
527.653	43.9305
530.546	41.2554
533.438	23.9342
536.331	46.0314
539.224	40.3124
542.117	12.0424
545.009	48.5514
547.902	25.8206
550.795	15.7489
553.687	17.3036
556.58	28.0757
559.473	10.3071
562.365	11.5735
565.258	15.7127
568.151	19.5033
571.044	11.0823
573.936	51.8171
576.829	52.2976
579.722	21.2061
582.614	31.8778
585.507	14.4803
588.4	27.1982
591.293	15.6313
594.185	31.304
597.078	18.5477
599.971	51.5727
602.863	50.6583
605.756	43.4722
608.649	67.5356
611.541	24.2617
614.434	38.6237
617.327	47.6725
620.22	55.6553
623.112	49.9761
626.005	26.0773
628.898	46.6038
631.79	50.6982
634.683	69.5631
637.576	43.0949
640.468	52.7113
643.361	71.9734
646.254	50.0962
649.146	76.1152
652.039	15.2385
654.932	39.1592
657.825	29.6352
660.717	77.5024
663.61	40.7771
666.503	39.7617
669.395	39.1851
672.288	62.6975
675.181	43.2625
678.073	18.8108
680.966	3.62549
683.859	3.96338
686.752	23.2107
689.644	20.0337
692.537	27.4133
695.43	14.7156
698.322	7.5835
701.215	17.1594
704.108	34.7876
707	1.30347
709.893	15.5352
712.786	3.47559
715.679	32.1148
718.571	25.9094
721.464	12.0967
724.357	23.5691
727.249	2.43897
730.142	10.2683
733.035	7.04639
735.928	29.1169
738.82	27.1526
741.713	23.4334
744.606	7.1311
747.498	32.2976
750.391	36.7322
753.284	13.3179
756.176	4.53955
759.069	48.5569
761.962	7.61401
764.855	4.61963
767.747	0.022461
770.64	31.8169
773.533	27.335
776.425	25.3169
779.318	9.69092
782.211	23.3169
785.103	22.5625
787.996	48.2126
790.889	55.1575
793.782	2.35864
796.674	32.3833
799.567	36.5637
802.46	51.1201
805.352	25.2847
808.245	32.647
811.138	38.2734
814.03	85.313
816.923	46.8708
819.816	63.5527
822.708	76.7454
825.601	98.7148
828.494	94.0559
831.387	98.6077
834.279	113.294
837.172	135.025
840.065	115.327
842.957	136.075
845.85	140.998
848.743	154.696
851.636	150.767
854.528	191.225
857.421	140.346
860.314	183.387
863.206	201.19
866.099	169.866
868.992	180.303
871.885	136.354
874.777	135.33
877.67	142.618
880.563	121.646
883.455	78.9285
886.348	70.0478
889.241	52.5303
892.133	70.0996
895.026	29.9746
897.919	38.1843
900.812	3.8396
903.704	0.925781
906.597	16.3896
909.49	51.5093
912.382	2.88415
915.275	13.5592
918.168	1.87158
921.06	8.68298
923.953	12.7953
926.846	0.956909
929.739	3.08325
932.631	19.3329
935.524	36.4119
938.417	0.533691
941.309	14.3102
944.202	12.2792
947.095	3.86023
949.987	44.4077
952.88	5.04016
955.773	31.8339
958.665	30.8257
961.558	57.014
964.451	29.1633
967.344	39.0126
970.236	33.7849
973.129	27.8645
976.022	69.3731
978.914	15.7551
981.807	28.9935
984.7	25.9854
987.592	7.45154
990.485	40.9893
993.378	47.7699
996.271	34.2471
999.163	21.7311
1002.06	41.6819
1004.95	44.652
1007.84	31.8579
1010.73	15.8014
1013.63	9.51611
1016.52	19.3767
1019.41	13.8247
1022.3	46.3486
1025.2	6.16406
1028.09	56.8971
1030.98	38.3494
1033.88	79.8507
1036.77	27.2184
1039.66	7.1886
1042.55	15.0607
1045.45	28.8403
1048.34	16.7688
1051.23	21.4282
1054.12	14.9468
1057.02	23.2356
1059.91	56.2808
1062.8	30.8738
1065.69	55.3154
1068.59	2.19043
1071.48	34.3931
1074.37	20.7334
1077.27	42.9219
1080.16	48.0488
1083.05	49.55
1085.94	42.4849
1088.84	5.29053
1091.73	21.6133
1094.62	20.0872
1097.52	17.8552
1100.41	29.3953
1103.3	30.0845
1106.19	11.9917
1109.09	14.854
1111.98	35.2048
1114.87	48.5786
1117.76	24.968
1120.66	27.1953
1123.55	19.4582
1126.44	49.1023
1129.34	39.4355
1132.23	32.2568
1135.12	36.4619
1138.01	3.92627
1140.91	39.0173
1143.8	44.9793
1146.69	58.324
1149.58	44.5476
1152.48	63.509
1155.37	28.96
1158.26	10.6316
1161.15	29.5859
1164.05	34.1103
1166.94	45.1043
1169.83	20.5452
1172.72	57.125
1175.62	26.5877
1178.51	29.6626
1181.4	59.22
1184.3	67.197
1187.19	22.7607
1190.08	28.3757
1192.97	48.3843
1195.87	34.7073
1198.76	56.4045
1201.65	24.9263
1204.55	16.3755
1207.44	22.7209
1210.33	33.7119
1213.22	13.0049
1216.12	47.8186
1219.01	34.3096
1221.9	25.4783
1224.79	49.595
1227.69	35.2654
1230.58	31.7273
1233.47	51.1289
1236.37	41.8625
1239.26	52.1816
1242.15	12.5632
1245.04	23.4875
1247.94	19.8179
1250.83	15.0654
1253.72	33.2827
1256.61	17.7886
1259.51	17.8525
1262.4	25.5625
1265.29	25.4517
1268.18	37.8733
1271.08	7.09302
1273.97	18.6956
1276.86	17.7039
1279.76	17.866
1282.65	32.6287
