Measurement: Raman, 785 nm, unoriented, Raman Data Processed
Mineral: Ixiolite
Rruff sample: R070289
Ideal chemistry: (Ta^5+^,Mn^2+^,Nb^5+^)O_2_
Locality: Voroni Tundra, Kola Peninsula, Russia
Source: Michael Scott
Description: Semimetallic black crystal with internal brown hints, associated with quartz, spodumene and mica
Raman shift (cm-1)	intensity
164.892	0
167.785	7.78345
170.677	19.4883
173.57	47.4785
176.463	6.59033
179.356	21.8179
182.248	54.5576
185.141	128.211
188.034	126.835
190.926	131.804
193.819	174.842
196.712	156.632
199.604	187.703
202.497	223.249
205.39	232.843
208.282	213.551
211.175	210.861
214.068	185.669
216.961	249.191
219.853	283.965
222.746	332.455
225.639	296.376
228.531	337.241
231.424	287.152
234.317	305.577
237.209	287.067
240.102	283.992
242.995	291.504
245.888	251.009
248.78	242.978
251.673	252.846
254.566	234.047
257.458	273.025
260.351	300.897
263.244	292.68
266.137	248.553
269.029	302.919
271.922	238.775
274.815	235.117
277.707	247.217
280.6	254.471
283.493	336.111
286.385	318.098
289.278	288.191
292.171	291.395
295.063	254.988
297.956	256.81
300.849	272.821
303.742	252.338
306.634	195.485
309.527	166.596
312.42	133.165
315.312	102.998
318.205	70.6836
321.098	1.43066
323.99	23.8555
326.883	9.07275
329.776	14.2837
332.669	11.853
335.561	0.875488
338.454	27.6929
341.347	8.80225
344.239	62.606
347.132	49.5015
350.025	7.78906
352.918	54.1191
355.81	14.0713
358.703	36.5459
361.596	74.8755
364.488	32.9023
367.381	24.2881
370.274	73.5762
373.166	103.859
376.059	157.821
378.952	185.846
381.844	111.085
384.737	145.075
387.63	116.316
390.523	124.778
393.415	154.825
396.308	103.513
399.201	116.676
402.093	117.135
404.986	91.4556
407.879	100.641
410.772	90.9888
413.664	99.8994
416.557	85.5386
419.45	95.5361
422.342	124.86
425.235	105.975
428.128	69.9805
431.02	82.0884
433.913	70.7051
436.806	69.6523
439.699	58.1977
442.591	101.218
445.484	103.37
448.377	144.504
451.269	120.248
454.162	137.01
457.055	107
459.947	84.4336
462.84	141.307
465.733	84.916
468.625	137.064
471.518	148.179
474.411	111.373
477.304	137.138
480.196	131.299
483.089	93.5957
485.982	114.29
488.874	116.798
491.767	114.566
494.66	103.523
497.553	74.5767
500.445	103.174
503.338	67.7363
506.231	114.744
509.123	66.3276
512.016	56.5449
514.909	37.2212
517.802	79.9492
520.694	8.34033
523.587	1.42334
526.48	18.9419
529.372	0.205566
532.265	14.5171
535.158	1.45996
538.05	22.2534
540.943	25.0366
543.836	4.17334
546.729	51.3584
549.621	57.5176
552.514	14.5278
555.407	53.7495
558.299	81.4658
561.192	82.3662
564.085	82.8564
566.977	71.938
569.87	104.108
572.763	27.1968
575.655	38.519
578.548	99.2583
581.441	117.457
584.333	154.255
587.226	115.207
590.119	79.7866
593.012	99.2417
595.904	107.707
598.797	120.444
601.69	124.957
604.582	173.553
607.475	111.715
610.368	153.948
613.26	127.331
616.153	126.852
619.046	139.215
621.939	166.337
624.831	130.277
627.724	123.394
630.617	142.398
633.509	102.669
636.402	145.581
639.295	67.8857
642.188	133.741
645.08	127.528
647.973	75.4116
650.866	64.6152
653.758	67.7271
656.651	28.6304
659.544	78.2139
662.436	46.3179
665.329	7.03125
668.222	62.6992
671.115	22.7061
674.007	58.7095
676.9	35.853
679.793	8.07227
682.685	22.8145
685.578	21.5435
688.471	54.0474
691.363	22.3237
694.256	35.7891
697.149	24.0273
700.042	22.6016
702.934	12.7588
705.827	34.4214
708.72	3.65234
711.612	9.54736
714.505	36.1123
717.398	24.7778
720.29	34.752
723.183	14.1787
726.076	32.2549
728.968	28.7783
731.861	18.5278
734.754	79.5923
737.647	96.4214
740.539	94.4819
743.432	147.058
746.325	178.592
749.217	269.399
752.11	253.538
755.003	303.46
757.895	420.309
760.788	434.552
763.681	466.287
766.574	544.754
769.466	520.495
772.359	568.525
775.252	592.496
778.144	576.354
781.037	573.75
783.93	612.13
786.822	604.429
789.715	617.907
792.608	564.617
795.501	607.572
798.393	637.01
801.286	598.619
804.179	501.883
807.071	569.496
809.964	601.987
812.857	555.255
815.75	562.901
818.642	596.934
821.535	639.939
824.428	591.453
827.32	582.294
830.213	673.687
833.106	734.849
835.998	786.863
838.891	792.004
841.784	821.342
844.677	896.062
847.569	936.865
850.462	932.292
853.355	897.267
856.247	1013.18
859.14	990.518
862.033	959.482
864.925	970.762
867.818	913.198
870.711	827.706
873.604	694.041
876.496	595.923
879.389	428.95
882.282	353.503
885.174	235.989
888.067	140.111
890.96	40.376
893.852	12.3999
896.745	18.9924
899.638	30.3503
902.53	39.8914
905.423	7.38989
908.316	33.0391
911.209	9.4707
914.101	9.03296
916.994	20.7915
919.887	18.3435
922.779	22.1899
925.672	75.2793
928.565	51.8296
931.457	79.8201
934.35	92.5537
937.243	130.354
940.136	124.959
943.028	137.341
945.921	137.76
948.814	180.814
951.706	176.826
954.599	166.985
957.492	165.778
960.385	170.329
963.277	125.353
966.17	134.839
969.063	146.212
971.955	115.107
974.848	141.318
977.741	87.2727
980.633	119.794
983.526	122.975
986.419	107.401
989.312	186.281
992.204	71.1975
995.097	139.287
997.99	87.4827
1000.88	83.6067
1003.77	109.694
1006.67	69.1099
1009.56	106.218
1012.45	58.0461
1015.35	87.4734
1018.24	52.3965
1021.13	54.9514
1024.02	69.678
1026.92	60.9436
1029.81	74.3799
1032.7	56.2212
1035.6	3.5647
1038.49	59.4102
1041.38	36.6777
1044.27	32.0779
1047.17	19.5505
1050.06	22.2903
1052.95	10.9187
1055.84	51.0188
1058.74	41.4863
1061.63	21.3738
1064.52	11.1992
1067.41	28.7717
1070.31	40.081
1073.2	13.032
1076.09	47.0691
1078.98	46.7217
1081.88	3.16113
1084.77	36.8352
1087.66	11.1548
1090.56	20.4126
1093.45	3.78955
1096.34	27.7559
1099.23	20.8867
1102.13	39.6065
1105.02	6.70874
1107.91	37.564
1110.81	14.6814
1113.7	49.5317
1116.59	20.0469
1119.48	5.97412
1122.38	3.68921
1125.27	7.58472
1128.16	4.9353
1131.05	6.00464
1133.95	13.9048
1136.84	24.2895
1139.73	58.8935
1142.62	48.5659
1145.52	26.6487
1148.41	26.0037
1151.3	44.3135
1154.19	8.65942
1157.09	19.9636
1159.98	29.6924
1162.87	42.9605
1165.77	46.9648
1168.66	20.1038
1171.55	62.5071
1174.44	77.4985
1177.34	42.7869
1180.23	45.9543
1183.12	50.3181
1186.02	16.9226
1188.91	25.8569
1191.8	83.5862
1194.69	44.7082
1197.59	18.3301
1200.48	3.59363
1203.37	6.67444
1206.26	40.3954
1209.16	61.3125
1212.05	29.5287
1214.94	46.0165
1217.84	36.7975
1220.73	24.9477
1223.62	25.0189
1226.51	16.8203
1229.41	26.4901
1232.3	17.0594
1235.19	28.3872
