Measurement: Raman, 532 nm, unoriented, Raman Data Processed
Mineral: Izoklakeite
Rruff sample: R110044
Ideal chemistry: Pb^2+^_26.4_(Cu^1+^,Fe^2+^)_2_(Sb^3+^,Bi^3+^)_19.6_S^2-^_57_
Locality: Crabtree quarry, Wake County, North Carolina, USA
Source: Mark Feinglos
Description: Lead-gray metallic aggregate of acicular crystals
Raman shift (cm-1)	intensity
201.379	0
204.272	0.04892
207.164	3.17734
210.057	6.77933
212.95	6.13791
215.843	10.0324
218.735	10.9921
221.628	9.95468
224.521	19.1569
227.413	24.5629
230.306	30.9107
233.199	28.3383
236.091	40.2418
238.984	42.4999
241.877	42.8463
244.769	49.2934
247.662	41.771
250.555	50.5735
253.448	51.5947
256.34	60.9292
259.233	51.9503
262.126	46.0925
265.018	47.2386
267.911	50.6593
270.804	49.1196
273.697	48.8973
276.589	41.2242
279.482	38.7647
282.375	35.2303
285.267	30.7101
288.16	23.7876
291.053	24.2629
293.945	28.1446
296.838	29.0104
299.731	28.949
302.623	30.2099
305.516	26.2283
308.409	29.7603
311.302	27.9936
314.194	28.8531
317.087	26.5787
319.98	33.6591
322.872	35.8321
325.765	32.6968
328.658	30.3232
331.55	27.6231
334.443	18.4553
337.336	1.56851
340.229	10.6989
343.121	0.89267
346.014	4.03249
348.907	1.57938
351.799	3.46463
354.692	1.87692
357.585	5.28079
360.478	1.35732
363.37	4.60494
366.263	4.57775
369.156	11.02
372.048	1.49568
374.941	10.7298
377.834	10.7551
380.726	8.16842
383.619	3.03349
386.512	9.19924
389.404	5.09338
392.297	15.1494
395.19	10.9203
398.083	15.619
400.975	13.2041
403.868	7.43074
406.761	16.9652
409.653	17.7308
412.546	14.7525
415.439	14.8213
418.332	14.7908
421.224	12.1083
424.117	9.45104
427.01	10.0973
429.902	14.1116
432.795	10.4995
435.688	10.9143
438.58	14.3774
441.473	17.1849
444.366	18.3397
447.259	13.467
450.151	13.3181
453.044	13.7115
455.937	8.15702
458.829	9.68993
461.722	6.60502
464.615	2.48654
467.507	2.37974
470.4	7.74416
473.293	1.0173
476.185	5.41641
479.078	6.95767
481.971	2.43108
484.864	3.26878
487.756	9.53022
490.649	5.53457
493.542	0.587631
496.434	5.12298
499.327	3.13566
502.22	2.80543
505.113	6.57895
508.005	3.23509
510.898	0.391632
513.791	9.5424
516.683	1.24877
519.576	6.60062
522.469	10.2687
525.361	4.79942
528.254	4.79096
531.147	4.13773
534.04	3.24624
536.932	1.84223
539.825	3.88714
542.718	2.81477
545.61	4.4699
548.503	5.28744
551.396	2.07989
554.288	6.69575
557.181	6.51364
560.074	2.43501
562.967	7.34537
565.859	0.758904
568.752	10.6418
571.645	0.853439
574.537	6.08923
577.43	0.283684
580.323	0.405029
583.216	7.53073
586.108	6.5947
589.001	3.62359
591.894	5.39392
594.786	5.77686
597.679	0.837975
600.572	0.702835
603.464	0.670174
606.357	5.21199
609.25	13.2104
612.142	6.86199
615.035	6.22449
617.928	10.0622
620.821	5.9401
623.713	2.18165
626.606	7.60214
629.499	3.35288
632.391	5.37782
635.284	5.59076
638.177	1.28962
641.069	12.5954
643.962	8.95043
646.855	0.304771
649.747	7.27339
652.64	3.27933
655.533	4.82912
658.426	5.98522
661.318	8.74478
664.211	6.77184
667.104	7.42265
669.996	5.24093
672.889	2.72505
675.782	10.0578
678.674	5.91959
681.567	13.4494
684.46	4.25281
687.353	11.9625
690.245	0.710197
693.138	1.69468
696.031	8.06988
698.923	4.95448
701.816	6.18871
704.709	7.38185
707.601	6.67054
710.494	8.33008
713.387	5.83869
716.28	8.77753
719.172	3.29485
722.065	4.8381
724.958	5.23257
727.85	1.73818
730.743	8.03546
733.636	2.23566
736.529	6.85371
739.421	2.15209
742.314	6.8107
745.207	1.3691
748.099	7.80875
750.992	2.21571
753.885	2.15314
756.777	5.67833
759.67	5.36044
762.563	5.56526
765.456	0.843513
768.348	4.17493
771.241	7.78861
774.134	4.14917
777.026	7.23921
779.919	3.33657
782.812	0.212914
785.704	7.8548
788.597	6.7199
791.49	1.80218
794.383	4.05392
797.275	5.65638
800.168	0.458504
803.061	11.567
805.953	1.53888
808.846	0.74279
811.739	4.22945
814.631	7.34057
817.524	9.30984
820.417	5.54661
823.309	1.21644
826.202	3.12574
829.095	9.68747
831.988	9.52409
834.88	6.85815
837.773	9.62723
840.666	7.17004
843.558	7.72933
846.451	6.78605
849.344	5.08778
852.236	3.07919
855.129	11.0036
858.022	10.3872
860.915	8.81182
863.807	6.97606
866.7	2.96528
869.593	9.99717
872.485	1.72543
875.378	6.86366
878.271	6.24046
881.163	8.25163
884.056	4.83552
886.949	8.60815
889.842	9.71525
892.734	7.02545
895.627	3.03513
898.52	3.4185
901.412	4.9101
904.305	10.3014
907.198	3.227
910.091	4.90382
912.983	4.60739
915.876	5.21627
918.769	7.08498
921.661	5.70383
924.554	1.39948
927.447	7.50553
930.339	4.65614
933.232	0.914742
936.125	1.85501
939.018	7.40466
941.91	5.97493
944.803	7.89796
947.696	9.32362
950.588	11.7078
953.481	9.48342
956.374	9.5843
959.266	14.4683
962.159	13.9079
965.052	19.2127
967.944	17.7239
970.837	14.798
973.73	11.1054
976.623	12.0924
979.515	11.5063
982.408	7.58403
985.301	3.59796
988.193	2.34555
991.086	2.55845
993.979	3.52445
996.871	6.73158
999.764	10.277
1002.66	4.32693
1005.55	2.59367
1008.44	0.750748
1011.34	8.37209
1014.23	5.00248
1017.12	1.91843
1020.01	2.42019
1022.91	8.58348
1025.8	5.75332
1028.69	5.21995
1031.58	6.57095
1034.48	4.85009
1037.37	4.19446
1040.26	7.13527
1043.15	4.66989
1046.05	6.8594
1048.94	3.43884
1051.83	3.58718
1054.73	6.80591
1057.62	1.99862
1060.51	2.89955
1063.4	2.70978
1066.3	1.91029
1069.19	8.36478
1072.08	4.11562
1074.97	8.80972
1077.87	7.10025
1080.76	1.42966
1083.65	4.4246
1086.55	4.64946
1089.44	2.63103
1092.33	7.7253
1095.22	8.93623
1098.12	3.34697
1101.01	4.25118
1103.9	4.8094
1106.79	6.36713
1109.69	3.23902
1112.58	8.61621
1115.47	0.362137
1118.37	4.35391
1121.26	7.22792
1124.15	1.09201
1127.04	1.40333
1129.94	2.16495
1132.83	9.11167
1135.72	2.72026
1138.61	7.77689
1141.51	1.86632
1144.4	8.48952
1147.29	0.117683
1150.18	7.28109
1153.08	3.9863
1155.97	6.30218
1158.86	4.28592
1161.76	8.92032
1164.65	8.20661
1167.54	5.10546
1170.43	1.86102
1173.33	3.59664
1176.22	3.41641
1179.11	9.17478
1182	3.24319
1184.9	5.36794
1187.79	10.2763
1190.68	8.25228
1193.58	5.1356
1196.47	9.31724
1199.36	7.89896
1202.25	5.00861
1205.15	9.07018
1208.04	0.369598
1210.93	4.93395
1213.82	2.58039
1216.72	6.54187
1219.61	0.202915
1222.5	5.42617
1225.39	8.31044
1228.29	8.87791
1231.18	4.19807
1234.07	5.70512
1236.97	2.49573
1239.86	1.84386
1242.75	0.907356
1245.64	11.6494
1248.54	5.07799
1251.43	1.84139
1254.32	9.21754
1257.21	7.75713
1260.11	1.97727
1263	7.52872
1265.89	8.28053
1268.79	6.11875
1271.68	5.49916
1274.57	6.63717
1277.46	5.15716
1280.36	0.404755
1283.25	4.397
1286.14	4.09391
1289.03	1.81828
1291.93	8.46006
1294.82	4.11421
1297.71	0.080193
1300.61	2.89158
