Measurement: Raman, 780 nm, unoriented, Raman Data Processed
Mineral: Izoklakeite
Rruff sample: R110044
Ideal chemistry: Pb^2+^_26.4_(Cu^1+^,Fe^2+^)_2_(Sb^3+^,Bi^3+^)_19.6_S^2-^_57_
Locality: Crabtree quarry, Wake County, North Carolina, USA
Source: Mark Feinglos
Description: Lead-gray metallic aggregate of acicular crystals
Raman shift (cm-1)	intensity
199.598	0
202.49	4.30252
205.383	0.880096
208.276	11.1009
211.168	9.97308
214.061	7.89914
216.954	12.6773
219.847	13.2356
222.739	19.4871
225.632	22.2812
228.525	38.8835
231.417	45.5155
234.31	39.4096
237.203	53.4368
240.095	60.5153
242.988	49.9322
245.881	60.6848
248.774	51.0995
251.666	60.5258
254.559	66.7617
257.452	77.7318
260.344	60.9417
263.237	54.1525
266.13	57.4469
269.022	62.8824
271.915	54.1287
274.808	51.7702
277.701	45.4251
280.593	41.3338
283.486	37.062
286.379	31.9096
289.271	18.9288
292.164	18.6721
295.057	23.1029
297.95	21.0835
300.842	17.1382
303.735	17.5492
306.628	7.73819
309.52	19.2661
312.413	16.6278
315.306	14.7731
318.198	6.09883
321.091	19.6955
323.984	25.2954
326.877	24.9104
329.769	21.306
332.662	19.7412
335.555	14.8101
338.447	3.89549
341.34	15.1505
344.233	3.76959
347.125	7.42519
350.018	7.72302
352.911	2.44259
355.803	9.29365
358.696	2.74689
361.589	8.54783
364.482	9.24155
367.374	2.94193
370.267	16.0974
373.16	4.06619
376.052	19.1708
378.945	18.6539
381.838	16.4602
384.731	4.9711
387.623	14.5632
390.516	15.5269
393.409	18.843
396.301	14.3641
399.194	24.683
402.087	16.9903
404.979	8.65249
407.872	19.9834
410.765	16.2089
413.658	15.7761
416.55	8.48926
419.443	22.3976
422.336	13.3688
425.228	10.5997
428.121	20.5833
431.014	11.6559
433.906	16.7016
436.799	15.4377
439.692	14.735
442.584	8.87896
445.477	16.9053
448.37	8.11008
451.263	0.448395
454.155	12.869
457.048	23.0204
459.941	6.45032
462.833	3.37851
465.726	6.76522
468.619	4.91725
471.512	12.783
474.404	1.19504
477.297	11.5004
480.19	4.27799
483.082	17.3279
485.975	6.14762
488.868	5.87722
491.76	11.5084
494.653	8.42928
497.546	1.94918
500.438	0.987732
503.331	1.96955
506.224	11.0201
509.117	7.98248
512.009	13.4135
514.902	9.70378
517.795	12.6678
520.687	15.8836
523.58	7.28308
526.473	5.88076
529.365	6.75927
532.258	20.0296
535.151	7.42075
538.044	13.6251
540.936	8.2614
543.829	21.4505
546.722	8.60206
549.614	4.87023
552.507	12.5456
555.4	3.79691
558.293	11.5055
561.185	10.482
564.078	13.9734
566.971	16.0855
569.863	3.83269
572.756	18.5297
575.649	6.03709
578.541	2.94192
581.434	18.0535
584.327	8.99816
587.22	1.52978
590.112	6.73536
593.005	11.621
595.898	0.226776
598.79	1.33722
601.683	1.04524
604.576	10.1828
607.468	20.5112
610.361	13.0655
613.254	9.88213
616.146	17.5123
619.039	11.0174
621.932	3.92572
624.825	13.1343
627.717	5.3318
630.61	8.70666
633.503	9.21975
636.395	4.62895
639.288	18.4134
642.181	13.7642
645.073	1.05753
647.966	13.7494
650.859	4.89008
653.752	4.83395
656.644	11.4947
659.537	15.5747
662.43	15.1984
665.322	4.72114
668.215	11.3416
671.108	3.05147
674	15.6263
676.893	5.02536
679.786	18.2615
682.679	13.2356
685.571	21.4449
688.464	0.697977
691.357	13.0037
694.249	14.8318
697.142	14.6861
700.035	2.759
702.928	15.9407
705.82	14.716
708.713	12.3254
711.606	16.603
714.498	9.14079
717.391	16.0017
720.284	9.57933
723.176	8.46013
726.069	7.97631
728.962	3.40937
731.855	10.1272
734.747	2.66412
737.64	9.85803
740.533	5.36736
743.425	14.2295
746.318	9.74529
749.211	5.33136
752.103	12.1809
754.996	7.25766
757.889	15.973
760.782	11.7009
763.674	10.7932
766.567	5.76509
769.46	15.1314
772.352	12.7296
775.245	5.80299
778.138	3.2108
781.03	12.2557
783.923	10.197
786.816	0.430565
789.708	2.96816
792.601	8.38933
795.494	1.4843
798.387	20.9685
801.279	3.93378
804.172	0.157419
807.065	6.91792
809.957	10.2779
812.85	13.7595
815.743	14.3223
818.635	6.98055
821.528	5.84151
824.421	17.3544
827.314	10.5464
830.206	7.44301
833.099	12.9123
835.992	11.2791
838.884	18.56
841.777	8.8475
844.67	14.8248
847.562	7.25357
850.455	13.2526
853.348	5.64543
856.241	9.75286
859.133	14.4872
862.026	1.56087
864.919	8.47341
867.811	13.1011
870.704	10.0177
873.597	17.0942
876.49	10.9568
879.382	22.161
882.275	5.23094
885.168	8.59343
888.06	12.423
890.953	10.0412
893.846	5.99892
896.738	12.3873
899.631	10.7445
902.524	5.55424
905.417	11.9432
908.309	8.3331
911.202	15.5167
914.095	7.48313
916.987	2.81887
919.88	15.8564
922.773	9.42349
925.665	0.060011
928.558	4.0676
931.451	14.2301
934.343	6.73163
937.236	13.1381
940.129	12.3551
943.022	13.7959
945.914	14.9368
948.807	8.64658
951.7	10.7627
954.592	7.80731
957.485	14.1528
960.378	13.7867
963.27	13.623
966.163	15.3022
969.056	7.5142
971.949	15.7881
974.841	7.42405
977.734	5.18766
980.627	6.41684
983.519	12.2439
986.412	7.57757
989.305	8.45683
992.197	18.1786
995.09	6.57334
997.983	13.217
1000.88	12.8711
1003.77	10.9369
1006.66	3.59008
1009.55	8.98627
1012.45	16.3519
1015.34	7.94313
1018.23	7.71796
1021.12	19.2379
1024.02	15.1199
1026.91	14.2003
1029.8	13.1982
1032.69	11.7661
1035.59	6.10023
1038.48	4.68087
1041.37	7.41936
1044.27	14.4283
1047.16	3.33819
1050.05	9.82056
1052.94	7.26179
1055.84	3.73479
1058.73	15.517
1061.62	11.2462
1064.52	14.8814
1067.41	18.9372
1070.3	6.79149
1073.19	15.9911
1076.09	8.36004
1078.98	0.151859
1081.87	10.3579
1084.76	14.7938
1087.66	0.660818
1090.55	4.36627
1093.44	1.54342
1096.34	3.55665
1099.23	3.64566
1102.12	6.5742
1105.01	4.70708
1107.91	5.98377
1110.8	4.52108
1113.69	7.92716
1116.58	3.50417
1119.48	12.0396
1122.37	2.87413
1125.26	13.8778
1128.15	9.96866
1131.05	14.4466
1133.94	6.60906
1136.83	11.7543
1139.72	6.71328
1142.62	5.54467
1145.51	8.40412
1148.4	17.4478
1151.3	15.4377
1154.19	10.7962
1157.08	3.0337
1159.97	5.37498
1162.87	8.67108
1165.76	6.52815
1168.65	3.29771
1171.55	10.811
1174.44	15.5136
1177.33	8.958
1180.22	23.9263
1183.12	10.1243
1186.01	16.0818
1188.9	11.2911
1191.79	8.62495
1194.69	5.39781
1197.58	7.35987
1200.47	11.1292
1203.37	3.98847
1206.26	1.03552
1209.15	23.7476
1212.04	5.66951
1214.93	9.66345
1217.83	10.4937
1220.72	13.8244
1223.61	1.6111
1226.51	0.75655
1229.4	13.8989
1232.29	9.80456
1235.18	3.39521
1238.08	18.1009
1240.97	13.179
1243.86	5.69447
1246.76	12.8368
1249.65	16.2655
1252.54	12.0282
1255.43	9.10909
1258.33	11.4807
1261.22	5.81665
1264.11	7.99489
1267	3.4277
1269.9	9.0904
1272.79	3.51326
1275.68	7.70747
1278.58	6.33474
1281.47	11.6548
1284.36	1.48237
