Measurement: Raman, 785 nm, unoriented, Raman Data Processed
Mineral: Jadeite
Rruff sample: R070117
Ideal chemistry: NaAlSi_2_O_6_
Locality: Tawmaw (Tawhmaw; Taw Maw), Myitkyina-Mogaung District, Kachin State, Myanmar (Burma)
Source: Michael Scott
Description: Green massive
Measured chemistry: Na_1.00_(Al_0.86_Cr_0.09_Fe^3+^_0.05_)_Î£=1_Si_2.00_O_6_
Raman shift (cm-1)	intensity
196.52	0
199.413	55.6172
202.306	574.891
205.198	527.117
208.091	504.18
210.984	85.2656
213.876	103.672
216.769	462.766
219.662	568.992
222.554	1148.98
225.447	1093.63
228.34	829.43
231.233	845.797
234.125	761.055
237.018	768.219
239.911	1125.75
242.803	1190.67
245.696	1123.67
248.589	1096.35
251.482	1111.01
254.374	798.594
257.267	993.242
260.159	957.516
263.052	1107.32
265.945	978.805
268.838	1023.83
271.73	867.141
274.623	792.195
277.516	631.312
280.408	555.031
283.301	811.352
286.194	757.156
289.087	1113.4
291.979	824.75
294.872	598.219
297.765	375.633
300.657	323.531
303.55	524.891
306.443	703.977
309.335	526.109
312.228	655.945
315.121	359.234
318.014	145.602
320.906	109.953
323.799	181.297
326.692	352.891
329.584	452.68
332.477	543.055
335.37	215.078
338.262	108.844
341.155	100.531
344.048	105.289
346.94	104.148
349.833	114.922
352.726	3.69531
355.619	151.438
358.511	78.0859
361.404	280.836
364.297	49.1953
367.189	48.7812
370.082	75.3516
372.975	290.859
375.868	341.516
378.76	286.617
381.653	169.281
384.546	131.805
387.438	2.67188
390.331	10.8047
393.224	237.953
396.116	400.922
399.009	254.328
401.902	306.219
404.795	244.531
407.687	12.125
410.58	33.3281
413.473	135.367
416.365	325.641
419.258	371.258
422.151	409.461
425.043	247.359
427.936	301.656
430.829	26.9062
433.721	155.945
436.614	147.633
439.507	127.711
442.4	247.773
445.292	154.289
448.185	165.695
451.078	130.695
453.97	203.188
456.863	156.891
459.756	186.484
462.649	208.875
465.541	225.109
468.434	279.109
471.327	141.555
474.219	287.266
477.112	142.781
480.005	14.6484
482.897	219.438
485.79	74.1328
488.683	362.328
491.575	242.844
494.468	446.141
497.361	240.414
500.253	221.234
503.146	173.047
506.039	55.6016
508.932	144.43
511.824	275.117
514.717	221.766
517.61	273
520.502	243.469
523.395	66.9688
526.288	235.969
529.181	384.812
532.073	355.508
534.966	402.688
537.859	295.062
540.751	282.242
543.644	158.727
546.537	166.406
549.429	72.875
552.322	121.766
555.215	104.648
558.107	53.5
561	275.316
563.893	157.828
566.786	221.836
569.678	85.1445
572.571	260.859
575.464	149.723
578.356	239.144
581.249	379.031
584.142	216
587.034	268.883
589.927	23.582
592.82	187.512
595.713	46.5547
598.605	52.2578
601.498	145.402
604.391	246.777
607.283	58.3867
610.176	140.234
613.069	66.4766
615.962	178.035
618.854	15.2305
621.747	149.953
624.64	108.715
627.532	229.781
630.425	273.441
633.318	31.0664
636.21	243.773
639.103	0.417969
641.996	87.8594
644.889	126.297
647.781	167.824
650.674	112.867
653.567	170.992
656.459	76.543
659.352	179.336
662.245	5.99609
665.137	124.148
668.03	211.519
670.923	3.38281
673.815	194.777
676.708	115.199
679.601	247.871
682.494	118.676
685.386	215.227
688.279	133.426
691.172	190.785
694.064	205.012
696.957	293.004
699.85	269.309
702.742	477.816
705.635	432.195
708.528	152.211
711.42	289.578
714.313	218.465
717.206	392.906
720.099	368.644
722.991	251.473
725.884	382.746
728.777	43.7734
731.669	97.7891
734.562	160.703
737.455	228.297
740.347	104.031
743.24	208.769
746.133	133.582
749.026	307.266
751.918	120.094
754.811	96.3008
757.704	15.7617
760.596	222.984
763.489	119.172
766.382	154.211
769.274	192.219
772.167	171.543
775.06	53.1016
777.953	103.441
780.845	77.043
783.738	83.8242
786.631	38.6523
789.523	237.328
792.416	97.5273
795.309	264.117
798.202	128.863
801.094	143.574
803.987	21.8555
806.88	16.4727
809.772	132.984
812.665	226.715
815.558	255.656
818.45	226.184
821.343	340.312
824.236	236.121
827.129	76.4727
830.021	33.5781
832.914	139.324
835.807	184.606
838.699	117.215
841.592	197.785
844.485	149.098
847.377	247.141
850.27	59.2617
853.163	166.609
856.056	32.7812
858.948	196.059
861.841	217.086
864.734	281.754
867.626	56.0195
870.519	159.629
873.412	43.3789
876.304	171.902
879.197	180.695
882.09	179.844
884.982	105.793
887.875	68.9336
890.768	95.4453
893.66	145.457
896.553	221.551
899.446	173.137
902.339	112.363
905.231	163.168
908.124	70.1055
911.017	90.3633
913.909	103.438
916.802	109.336
919.695	182.508
922.587	139.844
925.48	150.25
928.373	92.8906
931.266	70.457
934.158	129.121
937.051	84.8555
939.944	157.633
942.836	97.832
945.729	111.019
948.622	25.0117
951.514	82.3125
954.407	51.6211
957.3	211.375
960.193	12.4922
963.085	185.336
965.978	87.8398
968.871	77.1094
971.763	4.42188
974.656	169.602
977.549	28.9648
980.442	254.797
983.334	211.629
986.227	207.453
989.12	158.531
992.012	141.051
994.905	129.484
997.798	178.418
1000.69	156.328
1003.58	177.332
1006.48	79.9609
1009.37	46.7656
1012.26	178.652
1015.15	200.809
1018.05	240.16
1020.94	137.055
1023.83	146.434
1026.72	166.086
1029.62	94.8594
1032.51	84.168
1035.4	108.555
1038.3	37
1041.19	226.637
1044.08	39.25
1046.97	161.641
1049.87	122.644
1052.76	59.2812
1055.65	60.3398
1058.54	166.731
1061.44	151.574
1064.33	173.766
1067.22	228.117
1070.12	196.285
1073.01	226.047
1075.9	131.426
1078.79	218.641
1081.69	285.473
1084.58	159.547
1087.47	67.8594
1090.36	239.379
1093.26	105.777
1096.15	104.875
1099.04	145.223
1101.93	232.91
1104.83	60.0254
1107.72	80.5742
1110.61	78.4551
1113.51	53.5957
1116.4	137.393
1119.29	67.957
1122.18	154.404
1125.08	225.236
1127.97	232.764
1130.86	257.383
1133.76	153.662
1136.65	181.17
1139.54	100.32
1142.43	187.139
1145.33	47.4062
1148.22	190.15
1151.11	2.76172
1154	136.994
1156.9	1.875
1159.79	131.268
1162.68	200.723
1165.57	62.9414
1168.47	49.9004
1171.36	145.307
1174.25	123.207
1177.14	36.1309
1180.04	66.2344
1182.93	135.723
1185.82	106.863
1188.72	3.74609
1191.61	60.8125
1194.5	98.5156
1197.39	155.176
1200.29	111.738
1203.18	50.7578
1206.07	91.582
1208.96	66.5117
1211.86	125.082
1214.75	113.352
1217.64	83.7422
1220.54	61.7129
1223.43	102.535
1226.32	72.8731
1229.21	109.129
1232.11	138.106
1235	148.361
1237.89	55.4141
