Measurement: Raman, 780 nm, unoriented, Raman Data Processed
Mineral: Jagoite
Rruff sample: R090028
Ideal chemistry: Pb^2+^_9_Fe^3+^_2_[Si_2_(Si,Fe^3+^)_3_][Pb^2+^_2_Si_8_(Si,Fe^3+^)_2_]O_41_Cl_3_
Locality: Langban, Filipstad, Varmland, Sweden
Source: William W. Pinch
Description: Yellowish green translucent fine-grained micaceous aggregates of plates on matrix.
Raman shift (cm-1)	intensity
128.536	0
131.911	5.06787
135.285	17.5781
138.66	44.8169
142.035	18.1235
145.41	8.84424
148.785	2.98413
152.159	14.8118
155.534	51.3103
158.909	98.8769
162.284	185.391
165.659	287.423
169.034	371.667
172.408	444.576
175.783	511.618
179.158	566.389
182.533	585.609
185.908	552.456
189.282	447.605
192.657	338.037
196.032	247.224
199.407	180.65
202.782	149.27
206.156	130.456
209.531	119.367
212.906	103.693
216.281	104.803
219.656	94.1982
223.03	81.8894
226.405	58.626
229.78	25.8271
233.155	2.75879
236.53	6.47095
239.905	0.815186
243.279	0.810791
246.654	4.8772
250.029	12.5718
253.404	8.5896
256.779	5.08276
260.154	19.3132
263.528	36.3992
266.903	34.9072
270.278	55.1951
273.653	62.1499
277.028	75.3879
280.402	92.8184
283.777	109.413
287.152	116.373
290.527	136.611
293.902	136.877
297.276	132.855
300.651	138.347
304.026	129.355
307.401	132.161
310.776	121.856
314.151	120.942
317.525	119.158
320.9	111.859
324.275	101.901
327.65	91.7617
331.025	77.7473
334.399	57.7622
337.774	44.5166
341.149	26.5195
344.524	5.60303
347.899	7.86621
351.274	8.13306
354.648	0.288574
358.023	7.79331
361.398	8.27539
364.773	11.2581
368.148	19.0012
371.522	35.5354
374.897	18.0784
378.272	23.8657
381.647	41.2017
385.022	44.978
388.397	48.4502
391.771	42.5327
395.146	48.8081
398.521	46.5251
401.896	59.9155
405.271	73.096
408.645	81.4312
412.02	87.1602
415.395	80.1621
418.77	73.6382
422.145	75.9119
425.519	74.5811
428.894	71.3848
432.269	76.2168
435.644	82.969
439.019	94.0969
442.394	98.814
445.768	115.565
449.143	126.647
452.518	133.287
455.893	135.638
459.268	143.151
462.642	138.81
466.017	107.216
469.392	91.7322
472.767	75.7407
476.142	58.6438
479.517	38.8015
482.891	21.5823
486.266	9.55664
489.641	0.0913918
493.016	0.926514
496.391	3.50049
499.765	1.48218
503.14	6.29981
506.515	27.6995
509.89	38.5583
513.265	43.1433
516.64	59.6977
520.014	59.6995
523.389	68.5227
526.764	61.3603
530.139	63.9333
533.514	56.9004
536.889	44.9954
540.263	50.5574
543.638	45.2188
547.013	43.2322
550.388	45.4783
553.763	47.9019
557.137	46.0278
560.512	46.3052
563.887	26.3799
567.262	25.7324
570.637	21.0818
574.011	9.81201
577.386	5.11865
580.761	4.11572
584.136	2.19116
587.511	0.157715
590.885	4.35034
594.26	9.39746
597.635	11.5881
601.01	31.2041
604.385	46.519
607.76	57.3115
611.134	57.554
614.509	61.4299
617.884	65.3015
621.259	59.2069
624.634	62.5071
628.009	65.5913
631.383	60.4807
634.758	64.6282
638.133	47.6709
641.508	36.6196
644.883	22.3843
648.257	18.3328
651.632	18.2675
655.007	9.43848
658.382	0.918335
661.757	3.48157
665.131	1.41174
668.506	6.00793
671.881	6.13098
675.256	16.0264
678.631	16.0149
682.006	13.5819
685.38	24.65
688.755	15.4015
692.13	11.4104
695.505	10.6299
698.88	5.4425
702.255	8.8042
705.629	7.13696
709.004	12.0199
712.379	16.1484
715.754	14.3646
719.129	16.901
722.503	3.58752
725.878	6.35095
729.253	1.0542
732.628	7.06677
736.003	3.39136
739.377	9.38839
742.752	13.9592
746.127	12.507
749.502	4.00623
752.877	2.66614
756.251	3.64661
759.626	0.604492
763.001	0.988159
766.376	5.40271
769.751	2.69202
773.126	6.39832
776.5	6.25549
779.875	1.6488
783.25	0.254639
786.625	0.223877
790	3.79651
793.375	0.447021
796.749	1.46289
800.124	1.90149
803.499	4.06738
806.874	5.23731
810.249	0.128174
813.623	2.7157
816.998	4.31811
820.373	3.71619
823.748	2.57397
827.123	2.146
830.497	5.2843
833.872	16.8263
837.247	24.0547
840.622	29.8441
843.997	32.5114
847.372	33.4312
850.746	26.7824
854.121	26.8308
857.496	25.6619
860.871	25.389
864.246	29.834
867.62	27.865
870.995	30.1337
874.37	43.9623
877.745	47.602
881.12	44.7051
884.495	46.4023
887.869	39.991
891.244	24.8558
894.619	15.6034
897.994	0.317749
901.369	4.12581
904.744	1.92761
908.118	9.09204
911.493	13.0615
914.868	26.2531
918.243	46.7769
921.617	50.0618
924.992	63.0247
928.367	67.3655
931.742	68.0775
935.117	70.9443
938.492	69.9847
941.866	78.0126
945.241	78.8329
948.616	79.5839
951.991	88.7367
955.366	85.8135
958.74	72.9332
962.115	73.6036
965.49	61.8379
968.865	63.364
972.24	63.2181
975.615	66.5211
978.989	58.4509
982.364	68.8439
985.739	87.6277
989.114	73.3739
992.489	45.2468
995.864	35.2571
999.238	23.2849
1002.61	14.3126
1005.99	12.3445
1009.36	8.03882
1012.74	0.801025
1016.11	0.155598
1019.49	1.67139
1022.86	7.7832
1026.24	0.919067
1029.61	3.65942
1032.99	6.54846
1036.36	17.2688
1039.74	23.9861
1043.11	29.4644
1046.49	28.8605
1049.86	34.8729
1053.23	29.8009
1056.61	30.5629
1059.98	29.1736
1063.36	22.1652
1066.73	18.2867
1070.11	15.4221
1073.48	16.5338
1076.86	15.5532
1080.23	5.31885
1083.61	12.6727
1086.98	6.77673
1090.36	9.78418
1093.73	8.0354
1097.11	4.05273
1100.48	10.1013
1103.86	9.80737
1107.23	9.60278
1110.61	16.639
1113.98	11.0057
1117.36	5.17248
1120.73	1.52771
1124.11	5.55981
1127.48	1.30627
1130.86	1.21484
1134.23	1.77209
1137.61	0.420776
1140.98	9.33813
1144.36	5.34216
1147.73	5.76245
1151.11	8.67371
1154.48	7.06055
1157.86	5.52332
1161.23	7.46436
1164.6	10.0996
1167.98	12.4867
1171.35	6.30957
1174.73	13.1108
1178.1	10.2948
1181.48	11.7004
1184.85	11.2042
1188.23	5.78894
1191.6	9.44775
1194.98	14.4277
1198.35	8.81555
1201.73	7.83435
1205.1	9.48023
1208.48	8.63794
1211.85	9.94482
1215.23	8.10645
1218.6	5.07544
1221.98	2.56555
1225.35	7.83911
1228.73	4.58972
1232.1	12.1951
1235.47	4.2915
1238.85	3.14282
1242.22	0.836914
1245.6	11.4293
1248.97	4.82532
1252.35	4.66028
1255.72	7.86511
1259.1	2.7334
1262.47	3.95703
1265.85	11.2127
1269.22	9.07788
1272.6	4.29932
1275.97	0.371582
1279.35	4.85217
1282.72	5.80139
1286.1	0
