Measurement: Raman, 532 nm, unoriented, Raman Data Processed
Mineral: Jagoite
Rruff sample: R090028
Ideal chemistry: Pb^2+^_9_Fe^3+^_2_[Si_2_(Si,Fe^3+^)_3_][Pb^2+^_2_Si_8_(Si,Fe^3+^)_2_]O_41_Cl_3_
Locality: Langban, Filipstad, Varmland, Sweden
Source: William W. Pinch
Description: Yellowish green translucent fine-grained micaceous aggregates of plates on matrix.
Raman shift (cm-1)	intensity
146.369	0
149.744	109.231
153.119	240.833
156.494	265.467
159.869	339.976
163.244	566.427
166.618	722.29
169.993	866.614
173.368	962.074
176.743	1145.42
180.118	1351.74
183.493	1385.11
186.867	1236.72
190.242	992.543
193.617	789.219
196.992	591.963
200.367	427.988
203.741	328.463
207.116	301.662
210.491	293.973
213.866	277.418
217.241	260.949
220.615	198.471
223.99	140.822
227.365	69.8281
230.74	41.5938
234.115	12.3457
237.489	1.32227
240.864	11.459
244.239	44.1758
247.614	21.3242
250.989	23.5
254.364	30.7617
257.738	67.4844
261.113	71.7754
264.488	72.7051
267.863	54.3281
271.238	48.7871
274.613	35.0645
277.987	127.773
281.362	191.543
284.737	147.576
288.112	178.818
291.487	173.281
294.861	153.619
298.236	126.207
301.611	124.072
304.986	101.744
308.361	88.8789
311.736	108.353
315.11	145.027
318.485	130.074
321.86	62.2148
325.235	69.0586
328.61	121.512
331.984	134.76
335.359	141.545
338.734	163.801
342.109	173.615
345.484	151.246
348.858	88.916
352.233	10.236
355.608	24.6191
358.983	61.4551
362.358	46.582
365.733	40.4023
369.107	40.7559
372.482	23.9824
375.857	89.7109
379.232	199.787
382.607	225.451
385.981	185.818
389.356	202.516
392.731	169.201
396.106	120.994
399.481	97.1758
402.856	115.801
406.23	191.279
409.605	210.828
412.98	178.76
416.355	107.664
419.73	111.197
423.104	155.207
426.479	90.918
429.854	124.951
433.229	98.0996
436.604	141.975
439.978	125.889
443.353	117.67
446.728	80.7051
450.103	151.869
453.478	145.478
456.853	81.9727
460.227	69.6914
463.602	25.8223
466.977	28.9941
470.352	15.4961
473.727	24.0703
477.101	15.9805
480.476	36.4355
483.851	42.207
487.226	6.38672
490.601	11.5879
493.976	25.3906
497.35	33.2891
500.725	36.4238
504.1	28.168
507.475	78.3106
510.85	180.18
514.224	211.654
517.599	189.242
520.974	247.211
524.349	278.639
527.724	263.82
531.098	222.42
534.473	244.148
537.848	318.68
541.223	314.201
544.598	273.357
547.973	273.76
551.347	313.594
554.722	331.519
558.097	265.111
561.472	230.705
564.847	212.703
568.221	198.615
571.596	175.648
574.971	84.8496
578.346	11.1582
581.721	7.89844
585.096	0.332031
588.47	0.794922
591.845	25.5488
595.22	46.3691
598.595	35.6035
601.97	22.125
605.344	8.31445
608.719	57.7188
612.094	90.3984
615.469	133.065
618.844	141.592
622.218	135.502
625.593	174.111
628.968	172.592
632.343	116.963
635.718	184.977
639.093	153.086
642.467	121.832
645.842	98.8633
649.217	58.8516
652.592	62.6133
655.967	103.062
659.341	118.883
662.716	101.641
666.091	102.842
669.466	169.606
672.841	161.93
676.216	149.701
679.59	138.795
682.965	195.889
686.34	179.367
689.715	147.832
693.09	107.85
696.465	33.0156
699.839	66.1992
703.214	89.6152
706.589	94.2793
709.964	81.9004
713.339	26.1113
716.713	51.1035
720.088	81.0273
723.463	42.7578
726.838	17.0117
730.213	64.5644
733.587	34.9512
736.962	46.1445
740.337	44.2852
743.712	37.5332
747.087	53.6426
750.462	27.9277
753.836	4.67578
757.211	5.49805
760.586	50.541
763.961	54.5566
767.336	84.0312
770.71	88.3965
774.085	104.633
777.46	21.332
780.835	35.4297
784.21	11.4297
787.585	11.916
790.959	21.8516
794.334	91.8906
797.709	62.8887
801.084	39.7129
804.459	33.959
807.833	82.7148
811.208	60.8711
814.583	100.182
817.958	4.72266
821.333	27.8984
824.707	48.2832
828.082	90.1113
831.457	27.623
834.832	45.2129
838.207	17.0215
841.582	64.291
844.956	49.6191
848.331	15.9492
851.706	12.377
855.081	119.951
858.456	66.9688
861.83	23.6406
865.205	53.8496
868.58	63.6895
871.955	30.9004
875.33	37.8555
878.705	74.4512
882.079	84.3926
885.454	70.4766
888.829	54.875
892.204	50.5645
895.579	50.7246
898.953	33.125
902.328	95.125
905.703	60.7207
909.078	30.3652
912.453	44.4492
915.827	137.891
919.202	261.566
922.577	214.379
925.952	206.852
929.327	197.672
932.702	263.178
936.076	261.887
939.451	353.225
942.826	420.111
946.201	485.398
949.576	395.848
952.951	418.383
956.325	410.435
959.7	446.588
963.075	540.648
966.45	503.682
969.825	382.748
973.199	345.01
976.574	308.4
979.949	340.223
983.324	273.938
986.699	282.498
990.073	179.853
993.448	87.6289
996.823	82.1367
1000.2	92.2852
1003.57	63.7207
1006.95	41.4746
1010.32	14.8496
1013.7	9.59375
1017.07	0.089844
1020.45	8.96875
1023.82	21.9863
1027.2	19.1348
1030.57	66.7129
1033.95	141.699
1037.32	181.887
1040.7	107.922
1044.07	182.1
1047.44	116.086
1050.82	137.978
1054.19	119.432
1057.57	108.346
1060.94	62.4531
1064.32	119.064
1067.69	82.2246
1071.07	69.2324
1074.44	54.3008
1077.82	69.2207
1081.19	56.4531
1084.57	67.7988
1087.94	8.19336
1091.32	33.5293
1094.69	16.0488
1098.07	37.5234
1101.44	83.5176
1104.82	98.375
1108.19	107.281
1111.57	131.272
1114.94	48.8066
1118.32	14.7598
1121.69	26.4668
1125.07	18.7344
1128.44	74.5879
1131.82	59.6895
1135.19	116.865
1138.57	77.1484
1141.94	28.0176
1145.32	46.959
1148.69	18.0723
1152.07	61.25
1155.44	57.4492
1158.81	30.9805
1162.19	41.1777
1165.56	92.9121
1168.94	33.4844
1172.31	45.4727
1175.69	28.5508
1179.06	47.2461
1182.44	84.7383
1185.81	63.4492
1189.19	44.4121
1192.56	87.6152
1195.94	41.0586
1199.31	60.9531
1202.69	6.64258
1206.06	30.7598
1209.44	20.7109
1212.81	65.5879
1216.19	120.127
1219.56	117.219
1222.94	83.3672
1226.31	93.5234
1229.68	7.50781
1233.06	30.2715
1236.43	10.0898
1239.81	35.4082
1243.18	89.2402
1246.56	108.285
1249.93	54.0742
1253.31	7.62109
1256.68	14.9258
1260.06	43.5586
1263.43	106.305
1266.81	30.7461
1270.18	100.172
1273.56	44.2734
1276.93	48.0801
1280.31	65.1708
1283.68	110.197
1287.06	77.916
1290.43	33.7344
1293.81	28.4844
1297.18	63.9043
1300.56	68.6699
