Measurement: Raman, 532 nm, unoriented, Raman Data Processed
Mineral: Jahnsite-(CaMnFe)
Rruff sample: R070733
Ideal chemistry: CaMn^2+^Fe^2+^_2_Fe^3+^_2_(PO_4_)_4_(OH)_2_8H_2_O
Locality: Voron'i Tundry, Kola Peninsula, Murmanskaja Oblast', Northern Region, Russia
Source: Michael Scott
Description: Orange-brown elongated tabular crystals associated with quartz, spodumene, and schorl.
Raman shift (cm-1)	intensity
190.034	0
192.927	89.3477
195.82	119.144
198.712	4.49561
201.605	29.377
204.498	274.689
207.39	306.465
210.283	386.766
213.176	528.555
216.069	494.533
218.961	384.972
221.854	336.455
224.747	161.657
227.639	131.46
230.532	102.749
233.425	133.561
236.317	49.6851
239.21	1.88867
242.103	56.647
244.995	60.3325
247.888	154.608
250.781	112.611
253.674	160.108
256.566	278.043
259.459	296.151
262.352	409.493
265.244	426.183
268.137	660.785
271.03	735.148
273.923	774.128
276.815	736.686
279.708	625.405
282.601	617.215
285.493	596.668
288.386	470.269
291.279	323.98
294.171	337.858
297.064	203.109
299.957	160.147
302.849	210.654
305.742	240.147
308.635	133.625
311.528	79.5688
314.42	71.8721
317.313	134.858
320.206	20.8843
323.098	43.3584
325.991	85.1313
328.884	148.661
331.776	208.527
334.669	127.992
337.562	119.219
340.455	125.018
343.347	68.7305
346.24	167.94
349.133	144.906
352.025	66.041
354.918	70.71
357.811	17.5561
360.704	53.7827
363.596	44.0513
366.489	27.5332
369.382	43.9136
372.274	11.5654
375.167	18.3696
378.06	86.2183
380.952	19.9624
383.845	16.7964
386.738	14.6406
389.63	49.0239
392.523	40.0156
395.416	102.929
398.308	99.4014
401.201	86.5161
404.094	96.1528
406.987	115.579
409.879	189.779
412.772	96.0342
415.665	85.9287
418.557	181.84
421.45	152.077
424.343	159.039
427.236	178.449
430.128	180.222
433.021	284.359
435.914	281.782
438.806	183.453
441.699	299.163
444.592	232.65
447.484	299.127
450.377	293.893
453.27	312.518
456.163	342.961
459.055	347.947
461.948	232.539
464.841	296.928
467.733	360.298
470.626	352.044
473.519	396.752
476.411	351.125
479.304	431.187
482.197	330.505
485.089	382.196
487.982	320.466
490.875	374.218
493.768	261.672
496.66	260.229
499.553	317.715
502.446	170.711
505.338	202.766
508.231	172.268
511.124	80.1685
514.016	37.5576
516.909	16.2026
519.802	13.3774
522.695	17.4658
525.587	18.1948
528.48	41.2627
531.373	17.7158
534.265	1.18848
537.158	88.7476
540.051	116.619
542.943	60.5566
545.836	96.4795
548.729	36.2275
551.622	84.1553
554.514	130.808
557.407	136.61
560.3	103.86
563.192	132.826
566.085	181.173
568.978	123.34
571.87	208.689
574.763	166.537
577.656	277.301
580.549	210.426
583.441	211.871
586.334	190.117
589.227	200.969
592.119	194.935
595.012	185.623
597.905	202.625
600.798	313.972
603.69	147.605
606.583	146.121
609.476	118.664
612.368	91.4482
615.261	169.492
618.154	82.3023
621.046	175.3
623.939	106.33
626.832	120.544
629.725	110.333
632.617	61.9263
635.51	104.134
638.403	63.4951
641.295	129.795
644.188	152.061
647.081	148.644
649.973	109.838
652.866	129.184
655.759	155.265
658.651	102.467
661.544	61.8935
664.437	141.383
667.33	92.0059
670.222	119.751
673.115	54.5205
676.008	61.2178
678.9	44.8198
681.793	3.02881
684.686	21.4224
687.578	113.468
690.471	37.6318
693.364	7.99805
696.256	80.4365
699.149	44.8906
702.042	28.8618
704.935	28.5845
707.827	75.5723
710.72	120.147
713.613	87.5205
716.505	72.6011
719.398	30.5605
722.291	1.90723
725.183	64.1426
728.076	107.531
730.969	94.4224
733.862	46.4805
736.754	34.2808
739.647	44.127
742.54	112.913
745.432	38.4853
748.325	55.6846
751.218	18.4175
754.111	33.2954
757.003	94.6592
759.896	0.864746
762.789	22.6748
765.681	33.4233
768.574	92.5557
771.467	58.4551
774.359	82.4595
777.252	13.3227
780.145	5.98535
783.038	105.128
785.93	91.4102
788.823	108.924
791.716	55.5317
794.608	70.8926
797.501	71.228
800.394	54.1196
803.286	26.8638
806.179	94.2852
809.072	36.0547
811.965	92.2124
814.857	43.9409
817.75	79.1636
820.643	72.3769
823.535	25.9165
826.428	121.521
829.321	111.204
832.213	12.2402
835.106	44.4375
837.999	96.1592
840.891	9.89355
843.784	57.7363
846.677	72.9228
849.57	170.457
852.462	102.926
855.355	85.1958
858.248	152.709
861.14	79.4341
864.033	51.8975
866.926	168.865
869.818	6.58301
872.711	23.1616
875.604	41.3652
878.497	116.154
881.389	6.99561
884.282	72.3965
887.175	54.7183
890.067	15.5479
892.96	30.4761
895.853	2.23438
898.745	66.4243
901.638	10.9146
904.531	11.394
907.424	17.6333
910.316	22.0371
913.209	53.104
916.102	15.4292
918.994	64.4273
921.887	89.4116
924.78	55.0073
927.673	71.5464
930.565	87.7798
933.458	46.4224
936.351	38.5801
939.243	73.5371
942.136	165.733
945.029	151.573
947.921	122.924
950.814	125.059
953.707	182.263
956.6	161.42
959.492	288.641
962.385	203.386
965.278	308.117
968.17	267.742
971.063	334.875
973.956	315.538
976.848	344.294
979.741	323.408
982.634	402.283
985.527	404.664
988.419	415.291
991.312	401.194
994.205	379.878
997.097	492.697
999.99	428.5
1002.88	383.271
1005.77	425.271
1008.67	307.205
1011.56	397.337
1014.45	231.856
1017.35	258.381
1020.24	147.565
1023.13	156.506
1026.02	175.553
1028.92	222.8
1031.81	177.11
1034.7	160.936
1037.6	162.589
1040.49	146.819
1043.38	155.709
1046.27	184.425
1049.17	84.1768
1052.06	123.433
1054.95	7.88135
1057.84	28.6162
1060.74	63.1895
1063.63	57.6699
1066.52	136.962
1069.41	74.708
1072.31	51.0195
1075.2	127.285
1078.09	17.6773
1080.98	39.9751
1083.88	3.2666
1086.77	26.3311
1089.66	16.9736
1092.56	17.1431
1095.45	45.5933
1098.34	41.5947
1101.23	36.9375
1104.13	6.16455
1107.02	83.981
1109.91	51.2163
1112.81	49.2358
1115.7	96.7471
1118.59	103.504
1121.48	19.2676
1124.38	70.2222
1127.27	42.7471
1130.16	127.808
1133.05	114.82
1135.95	180.853
1138.84	127.217
1141.73	77.9097
1144.62	79.3315
1147.52	134.309
1150.41	108.626
1153.3	82.1685
1156.2	10.168
1159.09	54.3755
1161.98	36.9692
1164.87	51.1235
1167.77	31.3506
1170.66	73.9165
1173.55	66.0693
1176.44	37.8027
1179.34	211.614
1182.23	69.4038
1185.12	94.063
1188.02	149.105
1190.91	44.2739
1193.8	9.42334
1196.69	4.34473
1199.59	47.9873
1202.48	94.0674
1205.37	78.3223
1208.26	53.4717
1211.16	29.2524
1214.05	40.8374
1216.94	99.7065
1219.84	57.2559
1222.73	50.2202
1225.62	29.5776
1228.51	84.168
1231.41	45.8662
1234.3	50.4663
1237.19	116.237
1240.08	119.433
1242.98	41.8291
1245.87	43.2373
1248.76	55.2563
1251.65	16.1943
