Measurement: Raman, 780 nm, unoriented, Raman Data Processed
Mineral: Jahnsite-(CaMnFe)
Rruff sample: R070733
Ideal chemistry: CaMn^2+^Fe^2+^_2_Fe^3+^_2_(PO_4_)_4_(OH)_2_8H_2_O
Locality: Voron'i Tundry, Kola Peninsula, Murmanskaja Oblast', Northern Region, Russia
Source: Michael Scott
Description: Orange-brown elongated tabular crystals associated with quartz, spodumene, and schorl.
Raman shift (cm-1)	intensity
178.824	0
181.716	47.9465
184.609	196.253
187.502	274.724
190.395	289.313
193.287	387.573
196.18	445.011
199.073	374.365
201.965	458.006
204.858	596.131
207.751	500.093
210.643	408.459
213.536	480.244
216.429	304.26
219.322	104.851
222.214	55.1247
225.107	13.3632
228	51.0885
230.892	11.5622
233.785	24.6418
236.678	45.8304
239.571	142.897
242.463	312.015
245.356	400.323
248.249	622.472
251.141	802.947
254.034	1170.03
256.927	1346.02
259.819	1577.01
262.712	1804.09
265.605	1904.45
268.498	1820.55
271.39	1749.48
274.283	1507.11
277.176	1470.43
280.068	1221.35
282.961	829.539
285.854	677.104
288.746	463.154
291.639	340.47
294.532	140.011
297.425	80.883
300.317	155.794
303.21	104.169
306.103	82.1003
308.995	122.388
311.888	106.359
314.781	154.295
317.673	278.837
320.566	341.196
323.459	380.36
326.351	279.123
329.244	257.616
332.137	283.396
335.03	199.934
337.922	297.667
340.815	152.898
343.708	181.975
346.6	66.1283
349.493	62.682
352.386	11.72
355.279	60.1149
358.171	25.0398
361.064	28.8453
363.957	78.8467
366.849	16.5121
369.742	19.2313
372.635	57.7561
375.527	61.2679
378.42	61.6066
381.313	60.0464
384.205	205.714
387.098	322.49
389.991	457.235
392.884	568.834
395.776	669.371
398.669	657.764
401.562	770.809
404.454	810.153
407.347	831.218
410.24	901.659
413.132	957.719
416.025	968.553
418.918	884.253
421.811	1010.86
424.703	954.925
427.596	1038.42
430.489	1110.17
433.381	1026.85
436.274	1149.55
439.167	1182.65
442.06	1236.37
444.952	1365.48
447.845	1374.03
450.738	1547.9
453.63	1665.77
456.523	1721.86
459.416	1909
462.308	2121.02
465.201	2170.19
468.094	2362.31
470.986	2392.69
473.879	2315.07
476.772	2344.45
479.665	2199.08
482.557	2080.9
485.45	1867.9
488.343	1592.31
491.235	1285.59
494.128	1147.2
497.021	886.81
499.913	590.998
502.806	435.721
505.699	372.361
508.592	114.62
511.484	13.2159
514.377	45.3792
517.27	21.9004
520.162	25.3964
523.055	25.0149
525.948	16.1897
528.841	114.198
531.733	23.9491
534.626	99.1015
537.519	141.505
540.411	246.253
543.304	434.706
546.197	614.961
549.089	716
551.982	856.613
554.875	835.546
557.768	910.534
560.66	845.833
563.553	820.688
566.446	886.602
569.338	932.915
572.231	717.452
575.124	861.667
578.016	713.089
580.909	620.943
583.802	578.237
586.694	414.675
589.587	338.765
592.48	232.039
595.373	172.99
598.265	155.97
601.158	41.3197
604.051	47.6848
606.943	37.5525
609.836	150.44
612.729	66.1381
615.621	186.783
618.514	63.2268
621.407	58.5663
624.3	85.795
627.192	112.388
630.085	112.868
632.978	63.1
635.87	136.169
638.763	111.128
641.656	67.909
644.548	39.3137
647.441	109.113
650.334	16.6518
653.227	82.1413
656.119	68.311
659.012	43.5805
661.905	69.2819
664.797	26.662
667.69	0.325676
670.583	13.9223
673.476	6.58386
676.368	4.11599
679.261	3.00893
682.154	12.4069
685.046	3.98483
687.939	10.1678
690.832	0.119706
693.724	1.83053
696.617	12.2032
699.51	18.7445
702.403	29.2086
705.295	41.8053
708.188	91.9221
711.081	92.0258
713.973	78.7867
716.866	25.0189
719.759	107.571
722.651	103.801
725.544	50.5394
728.437	47.9984
731.33	84.6518
734.222	39.6344
737.115	103.188
740.008	2.92144
742.9	102.634
745.793	74.3899
748.686	17.5976
751.578	76.6387
754.471	82.7538
757.364	49.3174
760.256	46.6486
763.149	5.5607
766.042	73.2291
768.935	29.4317
771.827	122.346
774.72	17.8355
777.613	86.004
780.505	124.111
783.398	48.1809
786.291	109.68
789.183	68.729
792.076	93.2055
794.969	99.8068
797.862	118.766
800.754	86.9017
803.647	17.3347
806.54	39.1003
809.432	87.2215
812.325	74.2425
815.218	63.1717
818.111	61.3008
821.003	80.1124
823.896	42.0602
826.789	66.3814
829.681	52.0932
832.574	98.675
835.467	215.541
838.359	89.8273
841.252	57.0111
844.145	56.8471
847.037	73.3715
849.93	61.6161
852.823	43.2089
855.716	49.2593
858.608	154.611
861.501	26.7692
864.394	23.1198
867.286	28.8399
870.179	24.4001
873.072	24.4405
875.964	53.2183
878.857	8.23312
881.75	9.72182
884.643	11.7136
887.535	210.639
890.428	30.5815
893.321	3.96562
896.213	10.1793
899.106	25.9734
901.999	10.0577
904.891	19.001
907.784	16.2478
910.677	40.4874
913.569	10.6047
916.462	11.8129
919.355	7.52044
922.248	55.2651
925.14	52.9098
928.033	74.0081
930.926	161.511
933.818	212.792
936.711	226.337
939.604	385.3
942.496	551.882
945.389	711.963
948.282	940.07
951.175	1385.91
954.067	1844.97
956.96	2674.91
959.853	3253.28
962.745	3887.48
965.638	4606.48
968.531	5017.78
971.423	5304.12
974.316	5073.71
977.209	4435.45
980.102	3595.89
982.994	3038.79
985.887	2608.77
988.78	2169.7
991.672	1791.19
994.565	1460.83
997.458	1361.87
1000.35	803.486
1003.24	578.262
1006.14	276.788
1009.03	176.274
1011.92	14.0654
1014.81	22.7329
1017.71	20.9297
1020.6	25.2271
1023.49	9.19021
1026.38	15.4212
1029.28	104.524
1032.17	169.834
1035.06	201.072
1037.96	165.247
1040.85	133.084
1043.74	91.4017
1046.63	45.6701
1049.53	87.3031
1052.42	101.026
1055.31	193.346
1058.2	227.536
1061.1	325.528
1063.99	344.589
1066.88	410.842
1069.78	398.269
1072.67	412.902
1075.56	418.12
1078.45	365.203
1081.35	336.712
1084.24	289.402
1087.13	296.068
1090.02	283.544
1092.92	298.784
1095.81	211.18
1098.7	245.451
1101.6	181.425
1104.49	130.41
1107.38	194.953
1110.27	166.058
1113.17	86.9861
1116.06	79.6832
1118.95	18.2277
1121.84	9.44968
1124.74	8.88294
1127.63	15.0546
1130.52	48.292
1133.41	26.3092
1136.31	13.5556
1139.2	1.6731
1142.09	26.2587
1144.98	50.4581
1147.88	43.7109
1150.77	83.0226
1153.66	149.535
1156.56	224.881
1159.45	227.312
1162.34	262.945
1165.23	303.565
1168.13	287.113
1171.02	393.044
1173.91	410.67
1176.81	455.528
1179.7	513.033
1182.59	539.927
1185.48	507.588
1188.38	487.716
1191.27	329.378
1194.16	253.762
1197.05	119.055
1199.95	7.90444
1202.84	85.6308
1205.73	38.5142
1208.62	58.7218
1211.52	81.7495
1214.41	44.6189
1217.3	5.7004
1220.2	36.2346
1223.09	14.6042
1225.98	30.7987
1228.87	32.5297
1231.77	36.1235
1234.66	33.1328
1237.55	55.9018
1240.44	75.1177
1243.34	113.946
1246.23	84.8924
1249.12	96.4195
1252.02	139.553
1254.91	77.6556
1257.8	85.568
1260.69	52.5085
1263.59	119.622
1266.48	92.1549
1269.37	54.0227
1272.26	72.8014
1275.16	78.1691
1278.05	22.4825
1280.94	94.3547
1283.84	18.6064
1286.73	0.811494
