Measurement: Raman, 780 nm, unoriented, Raman Data Processed
Mineral: Jamborite
Rruff sample: R070619
Ideal chemistry: Ni^2+^_1-x_Co^3+^_x_(OH)_2-x_(S^6+^O_4_)_x_nH_2_O [x  1/3; n  (1-x)]
Locality: Eugenia mine, Bellmunt del Priorat, Tarragona, Catalonia, Spain
Source: Joan Abella i Creus
Description: Spinach-green radiating aggregates, associated with dolomite. Sample appears to be amorphous.
Raman shift (cm-1)	intensity
106.02	0
109.395	95.2285
112.77	66.8174
116.144	12.5977
119.519	63.9316
122.894	115.351
126.269	132.481
129.644	45.6113
133.019	79.6094
136.393	13.8701
139.768	140.648
143.143	74.3213
146.518	79.5518
149.893	69.1191
153.268	152.876
156.642	38.4805
160.017	129.69
163.392	180.818
166.767	145.377
170.142	70.3555
173.516	43.292
176.891	89.4375
180.266	86.1689
183.641	127.14
187.016	36.751
190.391	134.123
193.765	47.9297
197.14	74.3545
200.515	17.3223
203.89	91.8584
207.264	3.6709
210.639	15.418
214.014	157.395
217.389	86.4785
220.764	102.353
224.139	181.139
227.513	23.2383
230.888	81.0693
234.263	135.255
237.638	124.635
241.013	90.3672
244.387	162.045
247.762	153.392
251.137	95.8106
254.512	72.376
257.887	13.792
261.262	48.1953
264.636	130.455
268.011	20.8896
271.386	9.58398
274.761	125.302
278.136	37.0029
281.51	8.29395
284.885	129.592
288.26	29.8604
291.635	31.9492
295.01	96.1943
298.385	196.057
301.759	142.555
305.134	87.9141
308.509	218.528
311.884	140.279
315.259	113.959
318.634	136.733
322.008	129.802
325.383	72.9639
328.758	118.466
332.133	148.293
335.508	150.352
338.882	127.87
342.257	83.0391
345.632	89.7539
349.007	94.9473
352.382	98.3262
355.757	173.2
359.131	37.2988
362.506	42.8916
365.881	51.8076
369.256	55.5498
372.631	97.6338
376.005	28.5469
379.38	15.5352
382.755	13.0703
386.13	30.2793
389.505	14.9512
392.88	30.6084
396.254	14.0967
399.629	63.6006
403.004	45.4951
406.379	82.5449
409.754	77.0361
413.128	111.111
416.503	75.333
419.878	51.5127
423.253	97.9268
426.628	197.855
430.002	181.784
433.377	171.064
436.752	269.211
440.127	284.685
443.502	300.856
446.877	269.864
450.251	338.397
453.626	356.031
457.001	323.108
460.376	322.528
463.751	208.848
467.125	376.568
470.5	277.296
473.875	249.288
477.25	249.587
480.625	181.482
484	141.132
487.374	139.419
490.749	35.9082
494.124	8.40332
497.499	85.9248
500.874	176.698
504.248	379.553
507.623	333.956
510.998	687.097
514.373	769.189
517.748	960.045
521.123	1088.99
524.497	1201.94
527.872	1118.47
531.247	992.789
534.622	832.768
537.997	744.579
541.371	508.152
544.746	379.528
548.121	336.075
551.496	285.271
554.871	217.364
558.245	77.9492
561.62	76.4629
564.995	21.4814
568.37	26.7822
571.745	12.0918
575.12	46.3877
578.494	15.1357
581.869	48.4678
585.244	19.9531
588.619	9.42969
591.994	51.8926
595.369	71.2461
598.743	115.789
602.118	32.2617
605.493	47.252
608.868	27.6113
612.243	21.8066
615.617	55.1728
618.992	37.9853
622.367	143.456
625.742	111.205
629.117	134.995
632.491	131.589
635.866	103.953
639.241	212.127
642.616	160.193
645.991	154.169
649.366	7.03613
652.74	81.2881
656.115	60.54
659.49	90.0547
662.865	56.4902
666.24	144.212
669.615	53.3994
672.989	178.601
676.364	110.168
679.739	28.292
683.114	117.959
686.489	116.884
689.863	23.5361
693.238	33.0283
696.613	47.8438
699.988	120.743
703.363	109.988
706.737	70.2119
710.112	22.7871
713.487	103.846
716.862	12.665
720.237	72.251
723.612	106.994
726.986	34.2129
730.361	123.449
733.736	214.58
737.111	31.8916
740.486	43.6182
743.861	29.3018
747.235	82.9434
750.61	27.2158
753.985	9.32031
757.36	19.5674
760.735	12.8291
764.109	26.8594
767.484	75.1445
770.859	3.82519
774.234	5.68164
777.609	32.9512
780.984	83.4404
784.358	68.3535
787.733	164.715
791.108	0.595703
794.483	45.7451
797.857	156.97
801.232	23.9561
804.607	62.6084
807.982	36.4941
811.357	21.8496
814.732	110.728
818.106	121.796
821.481	10.6904
824.856	90.2588
828.231	17.8232
831.606	90.3887
834.981	148.482
838.355	71.6602
841.73	155.964
845.105	46.2842
848.48	94.4688
851.855	112.585
855.23	118.627
858.604	42.5322
861.979	151.089
865.354	75.4639
868.729	22.1992
872.104	86.376
875.478	97.6631
878.853	71.541
882.228	135.875
885.603	91.6475
888.978	68.71
892.352	50.5332
895.727	28.332
899.102	54.5205
902.477	125.501
905.852	166.568
909.227	154.261
912.601	75.751
915.976	145.252
919.351	63.8174
922.726	14.708
926.101	89.2861
929.476	52.8057
932.85	18.9707
936.225	3.25195
939.6	24.584
942.975	37.4844
946.35	78.7959
949.724	44.5322
953.099	83.8897
956.474	70.6875
959.849	116.529
963.224	131.413
966.598	84.0615
969.973	103.161
973.348	137.97
976.723	49.2812
980.098	53.3359
983.472	5.2793
986.847	52.6387
990.222	155.065
993.597	71.7344
996.972	90.1162
1000.35	182.001
1003.72	125.556
1007.1	111.98
1010.47	55.1299
1013.85	19.2168
1017.22	95.3272
1020.6	164.598
1023.97	179.508
1027.35	129.785
1030.72	85.0059
1034.1	117.678
1037.47	77.7764
1040.84	101.103
1044.22	41.9277
1047.59	121.484
1050.97	124.803
1054.34	71.9766
1057.72	122.864
1061.09	72.2432
1064.47	99.2715
1067.84	39.7432
1071.22	98.9062
1074.59	46.5635
1077.97	5.90137
1081.34	75.6484
1084.72	76.0644
1088.09	75.4941
1091.47	108.914
1094.84	15.1152
1098.22	20.2578
1101.59	29.9277
1104.97	88.9385
1108.34	25.5
1111.72	43.04
1115.09	72.875
1118.46	103.022
1121.84	39.54
1125.21	27.1855
1128.59	28.6523
1131.96	43.9717
1135.34	87.9102
1138.71	143.701
1142.09	67.8867
1145.46	101.154
1148.84	80.4688
1152.21	125.159
1155.59	145.129
1158.96	13.71
1162.34	159.089
1165.71	143.33
1169.09	147.631
1172.46	109.481
1175.84	93.2324
1179.21	81.375
1182.59	82.6484
1185.96	209.525
1189.34	89.1055
1192.71	70.1055
1196.09	137.699
1199.46	79.8301
1202.84	170.877
1206.21	111.555
1209.59	163.201
1212.96	175.174
1216.34	117.621
1219.71	220.391
1223.09	16.293
1226.46	54.627
1229.83	21.0449
1233.21	147.994
1236.58	27.6602
1239.96	49.9043
1243.33	41.209
1246.71	32.1836
1250.08	28.1504
1253.46	137.727
1256.83	104.684
1260.21	186.789
1263.58	249.381
1266.96	104.377
1270.33	18.1562
1273.71	31.5645
1277.08	25.2949
1280.46	51.082
1283.83	33.1582
1287.21	0
