Measurement: Raman, 532 nm, unoriented, Raman Data Processed
Mineral: Jamesonite
Rruff sample: R050430
Ideal chemistry: Pb^2+^_4_Fe^2+^Sb^3+^_6_S^2-^_14_
Locality: Zacatecas, Mexico
Source: University of Arizona Mineral Museum
Description: Grayish black coarsely acicular crystals
Measured chemistry: Pb_4.02_Fe_1.00_Sb_5.98_S_14.00_
Raman shift (cm-1)	intensity
103.685	0
107.06	2.815
110.434	84.62
113.809	283.548
117.184	498.402
120.559	477.448
123.934	411.403
127.308	476.725
130.683	494.623
134.058	583.786
137.433	569.421
140.808	514.829
144.182	411.5
147.557	438.033
150.932	422.751
154.307	356.474
157.682	336.274
161.057	367.757
164.431	347.181
167.806	337.317
171.181	312.887
174.556	284.776
177.931	242.831
181.305	220.42
184.68	261.409
188.055	220.032
191.43	177.753
194.805	200.153
198.18	137.785
201.554	184.462
204.929	223.082
208.304	229.965
211.679	250.929
215.054	299.413
218.428	295.132
221.803	318.689
225.178	378.866
228.553	417.134
231.928	420.899
235.303	418.049
238.677	477.866
242.052	475.779
245.427	444.163
248.802	434.929
252.177	340.542
255.551	339.14
258.926	272.829
262.301	238.558
265.676	200.59
269.051	213.067
272.426	190.527
275.8	89.203
279.175	67.778
282.55	38.934
285.925	61.773
289.299	28.904
292.674	42.821
296.049	57.611
299.424	9.6
302.799	68.478
306.174	164.343
309.548	306.883
312.923	459.933
316.298	648.44
319.673	895.728
323.048	1003.38
326.422	775.467
329.797	571.323
333.172	454.168
336.547	329.679
339.922	205.517
343.297	122.296
346.671	98.421
350.046	71.78
353.421	68.191
356.796	18.815
360.171	39.925
363.546	38.91
366.92	26.237
370.295	3.477
373.67	18.043
377.045	2.675
380.419	47.695
383.794	36.928
387.169	42.341
390.544	21.227
393.919	72.948
397.294	77.906
400.668	100.87
404.043	85.544
407.418	72.494
410.793	66.824
414.168	44.862
417.543	80.201
420.917	79.001
424.292	86.196
427.667	17.139
431.042	56.808
434.417	51.683
437.791	49.817
441.166	57.175
444.541	60.549
447.916	61.061
451.291	19.105
454.665	53.246
458.04	61.66
461.415	10.608
464.79	30.712
468.165	16.755
471.539	27.228
474.914	54.474
478.289	23.836
481.664	20.845
485.039	46.812
488.414	53.968
491.788	6.544
495.163	55.479
498.538	1.371
501.913	6.723
505.288	8.819
508.663	3.705
512.037	33.109
515.412	7.9
518.787	17.802
522.162	15.344
525.537	44.224
528.911	21.302
532.286	10.281
535.661	1.498
539.036	43.001
542.411	9.966
545.786	34.561
549.16	40.838
552.535	25.826
555.91	55.117
559.285	5.564
562.659	0.78
566.034	21.477
569.409	41.33
572.784	17.459
576.159	27.642
579.534	32.328
582.908	6.966
586.283	27.751
589.658	46.232
593.033	12.543
596.408	15.059
599.782	10.162
603.157	40.06
606.532	17.333
609.907	3.412
613.282	28.649
616.657	23.95
620.031	49.998
623.406	20.317
626.781	28.183
630.156	46.965
633.531	26.318
636.906	41.18
640.28	51.241
643.655	3.713
647.03	27.144
650.405	32.64
653.779	23.792
657.154	35.88
660.529	45.762
663.904	23.624
667.279	33.899
670.654	45.379
674.028	16.604
677.403	29.995
680.778	1.521
684.153	8.216
687.528	11.334
690.903	24.61
694.277	46.021
697.652	4.842
701.027	34.946
704.402	20.333
707.777	13.766
711.151	26.832
714.526	26.392
717.901	6.389
721.276	45.28
724.651	15.551
728.026	40.747
731.4	35.953
734.775	37.579
738.15	77.005
741.525	52.55
744.899	24.272
748.274	31.398
751.649	18.231
755.024	52.614
758.399	3.804
761.774	4.603
765.148	26.309
768.523	18.002
771.898	7.638
775.273	14.03
778.648	3.612
782.023	50.258
785.397	2.957
788.772	57.777
792.147	65.24
795.522	24.898
798.896	29.975
802.271	19.704
805.646	51.835
809.021	34.511
812.396	15.982
815.771	9.069
819.145	59.262
822.52	23.559
825.895	45.281
829.27	27.317
832.645	33.713
836.019	13.987
839.394	5.331
842.769	20.932
846.144	18.075
849.519	8.447
852.894	14.526
856.268	7.643
859.643	19.075
863.018	28.531
866.393	29.698
869.768	20.655
873.143	35.046
876.517	4.122
879.892	14.666
883.267	26.395
886.642	3.59
890.016	11.141
893.391	35.864
896.766	28.173
900.141	30.025
903.516	19.781
906.891	19.224
910.265	11.084
913.64	33.422
917.015	41.494
920.39	16.248
923.765	9.31
927.14	36.452
930.514	21.65
933.889	17.132
937.264	12.367
940.639	11.631
944.013	22.745
947.388	28.477
950.763	29.782
954.138	7.773
957.513	34.578
960.888	39.159
964.263	42.517
967.637	12.18
971.012	41.456
974.387	62.81
977.762	49.079
981.136	28.801
984.511	61.517
987.886	46.967
991.261	30.226
994.636	24.403
998.011	61.081
1001.38	28.096
1004.76	21.982
1008.13	23.461
1011.51	15.402
1014.88	19.976
1018.26	32.188
1021.63	42.739
1025.01	23.41
1028.38	49.989
1031.76	29.05
1035.13	34.127
1038.51	23.679
1041.88	29.696
1045.26	28.39
1048.63	9.334
1052.01	25.916
1055.38	42.87
1058.76	54.693
1062.13	37.186
1065.51	23.409
1068.88	48.013
1072.26	10.932
1075.63	35.106
1079.01	25.676
1082.38	63.915
1085.76	3.862
1089.13	15.633
1092.51	21.373
1095.88	29.087
1099.26	45.655
1102.63	16.539
1106.01	53.764
1109.38	17.247
1112.75	24.266
1116.13	7.062
1119.5	20.999
1122.88	5.678
1126.25	0.883
1129.63	25.05
1133	17.859
1136.38	52.941
1139.75	22.06
1143.13	55.742
1146.5	33.771
1149.88	41.542
1153.25	44.277
1156.63	26.569
1160	18.754
1163.38	46.057
1166.75	60.824
1170.13	50.946
1173.5	33.304
1176.88	53.163
1180.25	36.739
1183.62	47.831
1187	47.536
1190.38	47.875
1193.75	29.7
1197.12	6.677
1200.5	13.213
1203.87	9.401
1207.25	24.344
1210.62	65.003
1214	59.008
1217.37	51.03
1220.75	39.87
1224.12	4.592
1227.5	48.162
1230.87	49.047
1234.25	15.13
1237.62	40.632
1241	23.334
1244.37	24.613
1247.75	0.408
1251.12	60.753
1254.5	54.012
1257.87	10.553
1261.25	43.741
1264.62	29.012
1268	51.094
1271.37	37.104
1274.74	13.233
1278.12	1.036
1281.49	21.574
1284.87	68.287
1288.24	77.768
1291.62	23.07
1294.99	30.527
1298.37	7.3
