Measurement: Raman, 785 nm, unoriented, Raman Data Processed
Mineral: Jamesonite
Rruff sample: R050430
Ideal chemistry: Pb^2+^_4_Fe^2+^Sb^3+^_6_S^2-^_14_
Locality: Zacatecas, Mexico
Source: University of Arizona Mineral Museum
Description: Grayish black coarsely acicular crystals
Measured chemistry: Pb_4.02_Fe_1.00_Sb_5.98_S_14.00_
Raman shift (cm-1)	intensity
147.08	0
149.973	279.619
152.865	425.379
155.758	280.22
158.651	44.165
161.543	0.402
164.436	369.856
167.329	961.628
170.221	1498.61
173.114	1973.97
176.007	2146.21
178.9	2040.77
181.792	1642.12
184.685	1579.16
187.578	1520.2
190.47	1682.99
193.363	1711.6
196.256	1996.5
199.148	2253.99
202.041	2418.22
204.934	2565.56
207.827	2670.39
210.719	2781.79
213.612	3190.25
216.505	3471.84
219.397	3875.14
222.29	4288.78
225.183	4627.93
228.076	4948.33
230.968	5110.49
233.861	5267.41
236.754	4996.89
239.646	4852.69
242.539	4602.39
245.432	4120.55
248.324	3682.76
251.217	3150.28
254.11	2807.94
257.003	2468.59
259.895	2208.61
262.788	2045.26
265.681	2098.41
268.573	2187.47
271.466	2475.62
274.359	2790.47
277.251	2760.11
280.144	2511.15
283.037	1729.03
285.93	1017.96
288.822	327.755
291.715	35.854
294.608	121.964
297.5	203.572
300.393	169.213
303.286	22.065
306.178	221.177
309.071	390.903
311.964	744.923
314.857	982.603
317.749	1548.03
320.642	2233.8
323.535	2974.42
326.427	3430.12
329.32	2611.6
332.213	2046.53
335.105	1501.28
337.998	900.658
340.891	631.433
343.784	438.468
346.676	222.089
349.569	176.741
352.462	183.828
355.354	157.615
358.247	23.756
361.14	27.303
364.032	54.089
366.925	23.345
369.818	7.732
372.711	41.129
375.603	11.343
378.496	25.324
381.389	101.936
384.281	41.987
387.174	168.018
390.067	162.733
392.959	88.663
395.852	140.715
398.745	152.612
401.638	210.664
404.53	208.793
407.423	109.442
410.316	84.735
413.208	114.538
416.101	152.653
418.994	179.977
421.886	173.829
424.779	147.743
427.672	145.076
430.565	143.489
433.457	126.075
436.35	98.63
439.243	110.066
442.135	53.599
445.028	102.211
447.921	94.435
450.813	27.683
453.706	82.44
456.599	75.857
459.491	24.869
462.384	70.116
465.277	12.242
468.17	16.618
471.062	23.361
473.955	65.378
476.848	33.72
479.74	16.039
482.633	2.085
485.526	15.864
488.418	37.66
491.311	25.411
494.204	65.846
497.097	21.279
499.989	15.401
502.882	1.006
505.775	2.132
508.667	22.09
511.56	83.016
514.453	0.786
517.346	32.472
520.238	34
523.131	31.221
526.024	58.187
528.916	91.316
531.809	102.999
534.702	101.509
537.594	80.936
540.487	48.022
543.38	118.071
546.273	96.77
549.165	109.929
552.058	86.794
554.951	71.284
557.843	92.11
560.736	78.473
563.629	74.977
566.521	91.379
569.414	48.571
572.307	58.104
575.2	40.021
578.092	33.96
580.985	29.729
583.878	76.107
586.77	127.183
589.663	16.279
592.556	7.313
595.448	37.101
598.341	67.418
601.234	120.569
604.127	93.933
607.019	81.764
609.912	77.182
612.805	83.876
615.697	15.443
618.59	37.863
621.483	69.826
624.375	68.901
627.268	109.497
630.161	16.647
633.054	59.446
635.946	98.281
638.839	33.746
641.732	61.457
644.624	75.314
647.517	13.392
650.41	62.26
653.302	9.359
656.195	30.751
659.088	23.616
661.981	69.413
664.873	71.384
667.766	23.588
670.659	20.603
673.551	49.915
676.444	31.699
679.337	82.881
682.229	28.938
685.122	13.654
688.015	76.511
690.907	20.214
693.8	65.351
696.693	56.612
699.586	39.824
702.478	50.23
705.371	29.895
708.264	61.031
711.156	1.1
714.049	81.398
716.942	44.169
719.834	41.299
722.727	12.416
725.62	16.392
728.513	89.086
731.405	74.685
734.298	85.856
737.191	60.476
740.083	0.737
742.976	105.448
745.869	34.954
748.761	23.627
751.654	73.038
754.547	55.454
757.44	50.603
760.332	40.012
763.225	105.196
766.118	37.134
769.01	1.246
771.903	102.784
774.796	21.533
777.688	79.291
780.581	73.326
783.474	69.543
786.367	40.521
789.259	56.153
792.152	34.034
795.045	34.382
797.937	27.684
800.83	36.261
803.723	107.785
806.615	34.112
809.508	104.004
812.401	22.467
815.294	74.665
818.186	47.11
821.079	85.305
823.972	25.894
826.864	72.079
829.757	83.053
832.65	47.757
835.542	18.803
838.435	18.217
841.328	36.083
844.221	54.289
847.113	97.367
850.006	32.177
852.899	100.79
855.791	58.779
858.684	59.851
861.577	74.469
864.469	24.58
867.362	38.532
870.255	36.525
873.148	115.506
876.04	83.494
878.933	48.974
881.826	53.246
884.718	38.348
887.611	66.474
890.504	34.841
893.396	72.634
896.289	22.292
899.182	35.867
902.075	82.96
904.967	77.271
907.86	53.71
910.753	0.173
913.645	55.123
916.538	2.958
919.431	27.365
922.323	61.701
925.216	76.867
928.109	78.34
931.002	35.979
933.894	41.178
936.787	44.718
939.68	13.524
942.572	28.268
945.465	52.269
948.358	54.336
951.25	60.799
954.143	73.271
957.036	87.138
959.929	25.916
962.821	40.334
965.714	11.996
968.607	117.458
971.499	56.09
974.392	97.671
977.285	79.69
980.177	54.906
983.07	92.621
985.963	39.445
988.856	41.036
991.748	10.147
994.641	4.191
997.534	6.442
1000.43	68.375
1003.32	75.446
1006.21	30.84
1009.1	54.317
1012	132.89
1014.89	10.332
1017.78	61.497
1020.67	55.199
1023.57	106.076
1026.46	82.774
1029.35	33.788
1032.25	18.357
1035.14	79.561
1038.03	63.578
1040.92	45.364
1043.82	50.486
1046.71	45.311
1049.6	92.151
1052.49	106.782
1055.39	125.364
1058.28	150.984
1061.17	2.973
1064.07	102.381
1066.96	12.33
1069.85	67.559
1072.74	30.866
1075.64	17.625
1078.53	50.532
1081.42	65.994
1084.32	53.416
1087.21	81.694
1090.1	109.726
1092.99	37.545
1095.88	27.306
1098.78	42.574
1101.67	71.824
1104.56	1.506
1107.46	31.512
1110.35	38.376
1113.24	38.057
1116.13	31.596
1119.03	10.951
1121.92	110.966
1124.81	55.543
1127.7	74.192
1130.6	82.794
1133.49	116.258
1136.38	37.698
1139.28	46.555
1142.17	28.433
1145.06	57.868
1147.95	77.574
1150.85	62.985
1153.74	83.898
1156.63	87.675
1159.53	31.161
1162.42	122.459
1165.31	66.232
1168.2	42.819
1171.1	39.115
1173.99	67.201
1176.88	28.266
1179.77	31.642
1182.67	43.782
1185.56	70.669
1188.45	92.993
1191.34	47.128
1194.24	98.072
1197.13	103.977
1200.02	111.451
1202.91	122.87
1205.81	113.264
1208.7	43.606
1211.59	104.161
1214.49	103.88
1217.38	21.414
1220.27	60.681
1223.16	83.399
1226.06	15.784
1228.95	119.743
1231.84	51.2
1234.73	139.756
1237.63	109.903
1240.52	149.181
1243.41	113.289
1246.31	31.606
1249.2	132.26
1252.09	138.879
1254.98	109.618
1257.88	156.578
1260.77	157.698
1263.66	65.302
1266.56	89.736
1269.45	64.843
1272.34	64.24
