Measurement: Raman, 785 nm, unoriented, Raman Data Processed
Mineral: Jamesonite
Rruff sample: R050430
Ideal chemistry: Pb^2+^_4_Fe^2+^Sb^3+^_6_S^2-^_14_
Locality: Zacatecas, Mexico
Source: University of Arizona Mineral Museum
Description: Grayish black coarsely acicular crystals
Measured chemistry: Pb_4.02_Fe_1.00_Sb_5.98_S_14.00_
Raman shift (cm-1)	intensity
144.669	0
147.562	1810.94
150.455	2845.48
153.347	2026.18
156.24	445.241
159.133	238.279
162.025	431.817
164.918	1249.47
167.811	2057.36
170.704	2101.52
173.596	1830.66
176.489	1328.06
179.382	1092.2
182.274	1014.55
185.167	1145.53
188.06	1326.39
190.952	1300.13
193.845	1279.25
196.738	1713.9
199.631	1365.9
202.523	1381.08
205.416	1206.64
208.309	1085.4
211.201	1072.22
214.094	1073.95
216.987	950.395
219.88	886.971
222.772	847.508
225.665	672.285
228.558	539.227
231.45	446.84
234.343	485.998
237.236	588.404
240.128	581.176
243.021	512.219
245.914	424.012
248.807	348.387
251.699	226.287
254.592	310.322
257.485	365.686
260.377	334.834
263.27	392.393
266.163	470.268
269.055	291.4
271.948	420.723
274.841	288.832
277.733	217.477
280.626	250.781
283.519	218.619
286.412	183.33
289.304	3.531
292.197	40.107
295.09	84.838
297.982	84.277
300.875	34.049
303.768	257.287
306.66	313.916
309.553	256.531
312.446	290.268
315.339	338.229
318.231	385.035
321.124	369.816
324.017	468.992
326.909	564.252
329.802	450.404
332.695	346.141
335.587	236.033
338.48	127.463
341.373	122.205
344.266	25.113
347.158	43.406
350.051	167.334
352.944	240.324
355.836	226.863
358.729	37.768
361.622	454.74
364.514	446.494
367.407	440.693
370.3	122.867
373.193	340.576
376.085	322.002
378.978	228.057
381.871	209.82
384.763	104.699
387.656	132.494
390.549	236.424
393.441	372.826
396.334	382.695
399.227	314.643
402.12	301.453
405.012	42.363
407.905	37.521
410.798	41.035
413.69	179.35
416.583	324.699
419.476	408.238
422.368	277.791
425.261	223.666
428.154	124.205
431.047	224.867
433.939	331.039
436.832	301.051
439.725	318.02
442.617	331.789
445.51	467.877
448.403	381.752
451.296	166.941
454.188	182.768
457.081	139.312
459.974	260.064
462.866	259.492
465.759	228.604
468.652	229.943
471.544	268.881
474.437	399.941
477.33	122.443
480.223	57.896
483.115	96.023
486.008	321.508
488.901	243.682
491.793	283.791
494.686	244.232
497.579	22.367
500.471	21.248
503.364	16.152
506.257	25.197
509.15	105.305
512.042	72.686
514.935	98.682
517.828	49.576
520.72	49.42
523.613	126.078
526.506	94.227
529.398	130.711
532.291	45.82
535.184	48.969
538.076	59.145
540.969	90.049
543.862	115.756
546.755	9.184
549.647	40.629
552.54	118.988
555.433	11.025
558.325	195.229
561.218	145.479
564.111	154.49
567.003	143.906
569.896	75.363
572.789	46.416
575.682	34.582
578.574	69.688
581.467	79.125
584.36	235.736
587.252	259.867
590.145	99.02
593.038	59.756
595.93	30.576
598.823	107.666
601.716	199.504
604.609	140.654
607.501	211.705
610.394	86.887
613.287	31.881
616.179	104.031
619.072	80.795
621.965	123.832
624.857	146.736
627.75	200.496
630.643	36.986
633.536	201.324
636.428	141.07
639.321	145.221
642.214	251.279
645.106	186.631
647.999	73.576
650.892	127.287
653.784	148.82
656.677	148.975
659.57	172.021
662.463	127.672
665.355	101.254
668.248	8.672
671.141	180.119
674.033	159.58
676.926	166.859
679.819	202.365
682.711	115.688
685.604	18.918
688.497	108.596
691.39	85.568
694.282	234.4
697.175	188.574
700.068	283.625
702.96	139.238
705.853	144.312
708.746	60.17
711.638	1.316
714.531	54.371
717.424	166.193
720.317	460.371
723.209	499.469
726.102	154.396
728.995	138.027
731.887	185.092
734.78	110.07
737.673	250.219
740.565	152.205
743.458	59.766
746.351	91.482
749.244	189.328
752.136	185.555
755.029	51.879
757.922	76.48
760.814	134.764
763.707	5.131
766.6	96.205
769.492	7.992
772.385	165.381
775.278	3.209
778.171	70.227
781.063	47.719
783.956	1.295
786.849	137.715
789.741	143.404
792.634	230.508
795.527	100.586
798.419	3.621
801.312	2.828
804.205	34.621
807.098	85.986
809.99	152.252
812.883	89.357
815.776	201.898
818.668	173.799
821.561	26.205
824.454	22.973
827.346	138.373
830.239	176.035
833.132	138.814
836.024	140.814
838.917	189.025
841.81	86.252
844.703	111.75
847.595	248.453
850.488	168.803
853.381	57.24
856.273	253.635
859.166	114.627
862.059	216.793
864.951	104.021
867.844	68.77
870.737	63.275
873.63	66.652
876.522	75.115
879.415	88.672
882.308	130.74
885.2	231.391
888.093	96.002
890.986	58.455
893.878	368.557
896.771	21.152
899.664	54.379
902.557	74.039
905.449	85.428
908.342	191
911.235	90.027
914.127	198.41
917.02	57.826
919.913	75.947
922.805	29.193
925.698	157.975
928.591	143.775
931.484	122.385
934.376	56.166
937.269	212.021
940.162	77.344
943.054	168.924
945.947	214.178
948.84	300.639
951.732	234.822
954.625	304.82
957.518	446.605
960.411	526.902
963.303	478.07
966.196	462.178
969.089	596.199
971.981	483.883
974.874	409.4
977.767	339.373
980.659	292.713
983.552	265.869
986.445	101.422
989.338	73.375
992.23	19.904
995.123	45.256
998.016	4.951
1000.91	265.566
1003.8	277.26
1006.69	151.475
1009.59	135.125
1012.48	206.705
1015.37	237.342
1018.26	138.074
1021.16	101.316
1024.05	158.416
1026.94	412.783
1029.84	209.961
1032.73	186.977
1035.62	260.334
1038.51	227.709
1041.41	330.707
1044.3	253.416
1047.19	171.865
1050.08	209.684
1052.98	136.793
1055.87	242.875
1058.76	293.844
1061.65	223.307
1064.55	93.334
1067.44	48.875
1070.33	182.488
1073.23	205.875
1076.12	162.596
1079.01	168.51
1081.9	204.66
1084.8	118.078
1087.69	109.541
1090.58	114.676
1093.47	224.939
1096.37	225.309
1099.26	286.152
1102.15	281.896
1105.05	64.77
1107.94	113.254
1110.83	154.461
1113.72	353.484
1116.62	399.617
1119.51	229.9
1122.4	458.725
1125.3	288.91
1128.19	345.309
1131.08	189.334
1133.97	103.744
1136.87	182.885
1139.76	134.768
1142.65	104.072
1145.54	137.781
1148.44	182.928
1151.33	155.516
1154.22	94.211
1157.11	153.068
1160.01	157.102
1162.9	146.156
1165.79	168.469
1168.68	200.555
1171.58	207.451
1174.47	52.23
1177.36	121.111
1180.26	19.074
1183.15	114.357
1186.04	68.551
1188.93	193.539
1191.83	24.834
1194.72	155.945
1197.61	57.719
1200.51	283.717
1203.4	68.312
1206.29	58.771
1209.18	6.848
1212.08	185.393
1214.97	58.326
1217.86	105.305
1220.75	170.471
1223.65	250.375
1226.54	125.16
1229.43	52.121
1232.32	89.721
1235.22	223.803
1238.11	125.947
1241	113.096
1243.89	239.402
1246.79	107.879
1249.68	128.564
1252.57	122.143
1255.47	65.975
1258.36	153.914
1261.25	258.012
1264.14	159.693
1267.04	106.635
1269.93	188.068
1272.82	0
