Measurement: Raman, 785 nm, unoriented, Raman Data Processed
Mineral: Jamesonite
Rruff sample: R050432
Ideal chemistry: Pb^2+^_4_Fe^2+^Sb^3+^_6_S^2-^_14_
Locality: San Jose mine, Oruro District, Bolivia
Source: University of Arizona Mineral Museum
Description: Grayish black coarse acicular crystals
Measured chemistry: Pb_4.00_Fe_1.00_(Sb_5.95_As_0.05_)_Î£=6_S_14.00_
Raman shift (cm-1)	intensity
158.169	0
161.062	71.483
163.954	107.812
166.847	149.184
169.74	243.913
172.632	266.939
175.525	263.12
178.418	253.863
181.311	257.135
184.203	231.063
187.096	208.757
189.989	236.459
192.881	241.737
195.774	320.994
198.667	387.526
201.559	423.314
204.452	465.865
207.345	482.169
210.238	481.932
213.13	565.943
216.023	626.894
218.916	663.165
221.808	780.483
224.701	800.951
227.594	851.222
230.486	910.306
233.379	959.44
236.272	945.63
239.165	894.569
242.057	927.182
244.95	808.515
247.843	763.075
250.735	648.058
253.628	614.132
256.521	560.174
259.413	550.4
262.306	507.292
265.199	516.572
268.091	530.671
270.984	586.435
273.877	590.95
276.77	664.818
279.662	632.029
282.555	514.914
285.448	348.049
288.34	177.969
291.233	69.771
294.126	36.091
297.018	8.091
299.911	22.495
302.804	55.87
305.697	19.631
308.589	22.95
311.482	46.022
314.375	128.419
317.267	205.832
320.16	361.18
323.053	483.005
325.945	661.588
328.838	757.541
331.731	689.041
334.624	456.369
337.516	265.603
340.409	119.56
343.302	45.912
346.194	6.591
349.087	28.829
351.98	63.599
354.872	54.382
357.765	67.02
360.658	52.2
363.551	31.107
366.443	57.718
369.336	23.02
372.229	33.923
375.121	40.156
378.014	13.6
380.907	43.305
383.799	32.278
386.692	42.493
389.585	31.528
392.478	39.698
395.37	42.193
398.263	18.231
401.156	3.098
404.048	6.138
406.941	15.419
409.834	1.585
412.727	7.434
415.619	14.29
418.512	26.107
421.405	22.488
424.297	4.428
427.19	3.45
430.083	8.38
432.975	11.855
435.868	4.168
438.761	0.144
441.654	25.055
444.546	5.063
447.439	27.212
450.332	31.446
453.224	22.131
456.117	23.523
459.01	42.898
461.902	19.831
464.795	27.048
467.688	35.883
470.581	35.467
473.473	8.491
476.366	3.532
479.259	11.651
482.151	34.148
485.044	30.405
487.937	27.118
490.829	48.803
493.722	39.139
496.615	45.652
499.508	46.829
502.4	69.682
505.293	55.86
508.186	41.401
511.078	60.983
513.971	8.48
516.864	10.641
519.756	43.401
522.649	37.384
525.542	24.428
528.435	29.993
531.327	15.529
534.22	17.409
537.113	47.197
540.005	54.887
542.898	74.398
545.791	56.033
548.683	38.877
551.576	57.359
554.469	58.813
557.362	10.245
560.254	42.011
563.147	34.358
566.04	13.915
568.932	28.959
571.825	40.039
574.718	36.147
577.61	45.111
580.503	35.477
583.396	39.9
586.289	65.114
589.181	57.873
592.074	19.6
594.967	9.874
597.859	10.721
600.752	2.278
603.645	5.165
606.537	16.468
609.43	1.675
612.323	38.774
615.216	4.133
618.108	47.692
621.001	60.367
623.894	21.327
626.786	33.82
629.679	27.092
632.572	25.541
635.464	2.094
638.357	8.326
641.25	17.089
644.143	6.764
647.035	1.33
649.928	24.979
652.821	8.401
655.713	8.457
658.606	26.474
661.499	39.168
664.391	44.763
667.284	35.15
670.177	27.142
673.07	28.732
675.962	31.655
678.855	6.567
681.748	21.266
684.64	13.24
687.533	11.848
690.426	10.802
693.318	16.638
696.211	26.253
699.104	21.361
701.997	32.658
704.889	34.102
707.782	52.814
710.675	37.6
713.567	16.557
716.46	47.651
719.353	15.625
722.245	2.905
725.138	23.936
728.031	7.464
730.924	1.687
733.816	28.385
736.709	47.597
739.602	28.273
742.494	45.3
745.387	43.81
748.28	32.117
751.172	40.205
754.065	17.381
756.958	28.013
759.851	10.991
762.743	8.676
765.636	18.361
768.529	10.663
771.421	13.126
774.314	7.453
777.207	32.189
780.099	28.823
782.992	28.322
785.885	31.177
788.778	42.511
791.67	54.313
794.563	28.011
797.456	8.185
800.348	36.873
803.241	14.156
806.134	5.511
809.026	19.562
811.919	29.7
814.812	10.49
817.705	39.338
820.597	36.664
823.49	43.085
826.383	56.44
829.275	59.506
832.168	22.558
835.061	40.4
837.953	35.548
840.846	10.189
843.739	4.041
846.631	5.654
849.524	0.418
852.417	29.293
855.31	21.3
858.202	14.975
861.095	37.753
863.988	57.358
866.88	49.069
869.773	30.735
872.666	22.213
875.558	15.466
878.451	1.292
881.344	17.303
884.237	0.469
887.129	14.621
890.022	34.319
892.915	28.228
895.807	19.7
898.7	36.911
901.593	61.193
904.485	48.722
907.378	27.704
910.271	53.56
913.164	46.612
916.056	19.58
918.949	13.024
921.842	18.749
924.734	7.947
927.627	17.807
930.52	10.327
933.412	21.244
936.305	71.598
939.198	43.607
942.091	29.248
944.983	24.074
947.876	36.493
950.769	17.536
953.661	13.899
956.554	34.066
959.447	15.631
962.339	17.751
965.232	74.986
968.125	25.596
971.018	19.815
973.91	50.602
976.803	36.857
979.696	40.029
982.588	43.742
985.481	14.802
988.374	28.768
991.266	27.464
994.159	1.09
997.052	12.996
999.945	22.615
1002.84	8.43
1005.73	13.836
1008.62	32.558
1011.51	53.273
1014.41	35.988
1017.3	39.914
1020.19	24.354
1023.09	26.684
1025.98	19.59
1028.87	36.728
1031.76	29.271
1034.66	20.891
1037.55	3.931
1040.44	33.188
1043.34	52.372
1046.23	16.354
1049.12	24.319
1052.01	43.993
1054.91	34.095
1057.8	21.161
1060.69	31.632
1063.58	50.104
1066.48	17.116
1069.37	8.33
1072.26	26.983
1075.15	6.199
1078.05	50.634
1080.94	9.464
1083.83	34.181
1086.73	2.724
1089.62	47.043
1092.51	53.632
1095.4	48.733
1098.3	74.254
1101.19	13.2
1104.08	7.156
1106.97	7.031
1109.87	18.687
1112.76	13.201
1115.65	16.213
1118.55	12.274
1121.44	38.698
1124.33	66.229
1127.22	49.769
1130.12	32.163
1133.01	33.861
1135.9	48.827
1138.79	15.328
1141.69	29.687
1144.58	22.061
1147.47	11.605
1150.37	1.027
1153.26	0.987
1156.15	34.892
1159.04	9.357
1161.94	45.563
1164.83	17.679
1167.72	64.168
1170.61	58.797
1173.51	13.734
1176.4	52.608
1179.29	1.468
1182.18	19.544
1185.08	2.91
1187.97	1.823
1190.86	34.51
1193.76	5.416
1196.65	59.241
1199.54	34.032
1202.43	21.43
1205.33	49.153
1208.22	28.801
1211.11	43.922
1214	24.867
1216.9	9.477
1219.79	5.898
1222.68	7.958
1225.58	3.956
1228.47	39.781
1231.36	24.415
1234.25	18.614
1237.15	34.647
1240.04	19.49
1242.93	38.343
1245.82	20.658
1248.72	10.415
1251.61	6.187
1254.5	8.992
1257.39	13.22
1260.29	0.681
1263.18	27.716
1266.07	3.109
1268.97	12.488
1271.86	1.065
