Measurement: Raman, 785 nm, unoriented, Raman Data Processed
Mineral: Jamesonite
Rruff sample: R050432
Ideal chemistry: Pb^2+^_4_Fe^2+^Sb^3+^_6_S^2-^_14_
Locality: San Jose mine, Oruro District, Bolivia
Source: University of Arizona Mineral Museum
Description: Grayish black coarse acicular crystals
Measured chemistry: Pb_4.00_Fe_1.00_(Sb_5.95_As_0.05_)_Î£=6_S_14.00_
Raman shift (cm-1)	intensity
176.489	0
179.382	109.712
182.274	438.604
185.167	1480.42
188.06	2778.64
190.952	1335.4
193.845	608.782
196.738	603.55
199.631	676.898
202.523	755.458
205.416	778.515
208.309	641.825
211.201	545.584
214.094	630.546
216.987	984.107
219.88	977.153
222.772	810.987
225.665	729.764
228.558	692.339
231.45	798.209
234.343	848.823
237.236	987.039
240.128	1263.5
243.021	1820.96
245.914	2941.95
248.807	4664.72
251.699	4322.68
254.592	2183.66
257.485	1206.67
260.377	899.826
263.27	693.598
266.163	519.57
269.056	333.996
271.948	354.411
274.841	241.771
277.734	232.558
280.626	303.537
283.519	354.068
286.412	352.395
289.304	148.323
292.197	112.513
295.09	24.071
297.983	20.368
300.875	173.58
303.768	227.849
306.661	264.579
309.553	402.414
312.446	170.416
315.339	188.248
318.231	173.925
321.124	163.851
324.017	150.486
326.909	293.882
329.802	286.598
332.695	188.565
335.588	152.495
338.48	57.29
341.373	44.07
344.266	2.147
347.158	146.003
350.051	278.418
352.944	271.758
355.836	289.458
358.729	91.96
361.622	29.289
364.515	60.414
367.407	58.905
370.3	222.721
373.193	210.955
376.085	135.205
378.978	142.986
381.871	6.718
384.763	17.727
387.656	76.649
390.549	131.589
393.442	6.229
396.334	162.854
399.227	165.359
402.12	213.155
405.012	82.142
407.905	51.99
410.798	72.42
413.69	201.148
416.583	182.451
419.476	286.975
422.369	298.847
425.261	338.256
428.154	242.388
431.047	325.252
433.939	391.155
436.832	418.829
439.725	540.51
442.617	746.429
445.51	988.232
448.403	1157.76
451.296	870.837
454.188	622.722
457.081	541.695
459.974	475.923
462.866	466.299
465.759	418.528
468.652	376.401
471.544	410.156
474.437	359.766
477.33	270.918
480.223	245.404
483.115	183.546
486.008	270.949
488.901	290.897
491.793	268.252
494.686	239.185
497.579	282.298
500.471	125.81
503.364	43.791
506.257	30.015
509.15	90.279
512.042	103.439
514.935	110.076
517.828	110.302
520.72	109.969
523.613	173.776
526.506	178.802
529.398	6.396
532.291	88.864
535.184	62.13
538.077	0.448
540.969	8.405
543.862	109.882
546.755	34.198
549.647	53.987
552.54	10.969
555.433	7.111
558.326	30.643
561.218	124.877
564.111	72.807
567.004	11.231
569.896	78.066
572.789	101.936
575.682	26.671
578.574	65.253
581.467	8.446
584.36	83.777
587.253	9.557
590.145	71.725
593.038	22.309
595.931	52.918
598.823	57.797
601.716	130.682
604.609	104.35
607.501	108.542
610.394	95.967
613.287	66.241
616.18	25.333
619.072	96.635
621.965	70.5
624.858	125.174
627.75	91.766
630.643	129.971
633.536	132.666
636.428	30.604
639.321	152.639
642.214	130.238
645.107	150.733
647.999	129.01
650.892	135.877
653.785	143.937
656.677	134.313
659.57	168.219
662.463	56.115
665.355	111.664
668.248	40.134
671.141	60.263
674.034	168.566
676.926	153.017
679.819	177.484
682.712	103.733
685.604	67.905
688.497	26.501
691.39	67.148
694.282	178.906
697.175	171.805
700.068	204.531
702.961	219.439
705.853	168.156
708.746	117.273
711.639	178.873
714.531	175.985
717.424	137.053
720.317	158.021
723.209	141.662
726.102	187.936
728.995	107.172
731.888	5.391
734.78	56.97
737.673	167.888
740.566	129.118
743.458	186.636
746.351	197.969
749.244	211.603
752.136	166.088
755.029	167.318
757.922	142.804
760.815	50.807
763.707	130.496
766.6	86.934
769.493	76.078
772.385	63.981
775.278	168.783
778.171	116.015
781.063	113.994
783.956	34.482
786.849	112.446
789.742	70.381
792.634	159.591
795.527	138.016
798.42	37.892
801.312	7.321
804.205	15.103
807.098	30.874
809.99	94.863
812.883	101.661
815.776	143.043
818.669	196.168
821.561	83.926
824.454	198.53
827.347	178.021
830.239	134.479
833.132	45.475
836.025	213.008
838.917	64.5
841.81	61.483
844.703	83.066
847.596	107.11
850.488	158.601
853.381	155.164
856.274	159.671
859.166	149.768
862.059	164.436
864.952	94.897
867.844	164.531
870.737	84.46
873.63	172.111
876.523	79.676
879.415	88.245
882.308	152.301
885.201	124.005
888.093	95.202
890.986	98.615
893.879	131.857
896.771	57.254
899.664	193.811
902.557	164.856
905.45	97.659
908.342	108.291
911.235	142.492
914.128	228.93
917.02	194.404
919.913	114.435
922.806	139.195
925.698	31.993
928.591	58.813
931.484	203.395
934.377	183.268
937.269	206.434
940.162	142.243
943.055	130.599
945.947	187.146
948.84	176.561
951.733	149.367
954.625	248.903
957.518	302.26
960.411	360.544
963.304	423.699
966.196	314.768
969.089	399.691
971.982	323.746
974.874	244.965
977.767	259.66
980.66	152.701
983.552	201.479
986.445	169.512
989.338	67.68
992.231	61.432
995.123	57.782
998.016	140.722
1000.91	200.829
1003.8	215.111
1006.69	217.048
1009.59	198.729
1012.48	162.291
1015.37	164.938
1018.26	239.836
1021.16	143.478
1024.05	55.979
1026.94	3.376
1029.84	116.154
1032.73	153.374
1035.62	216.374
1038.51	90.646
1041.41	114.333
1044.3	147.852
1047.19	165.262
1050.09	167.883
1052.98	180.648
1055.87	183.786
1058.76	127.413
1061.65	182.593
1064.55	79.201
1067.44	144.23
1070.33	74.071
1073.23	156.724
1076.12	128.896
1079.01	105.516
1081.9	181.021
1084.8	148.568
1087.69	116.855
1090.58	194.034
1093.47	154.23
1096.37	180.819
1099.26	186.426
1102.15	132.1
1105.05	116.843
1107.94	62.674
1110.83	152.315
1113.72	124.257
1116.62	183.333
1119.51	123.773
1122.4	182.314
1125.3	131.983
1128.19	114.638
1131.08	152.45
1133.97	169.656
1136.87	82.024
1139.76	186.527
1142.65	99.886
1145.54	112.307
1148.44	144.054
1151.33	150.337
1154.22	78.741
1157.12	122.977
1160.01	107.567
1162.9	78.466
1165.79	108.864
1168.68	133.352
1171.58	31.033
1174.47	24.785
1177.36	95.325
1180.26	86.287
1183.15	75.088
1186.04	8.599
1188.93	28.099
1191.83	15.909
1194.72	134.231
1197.61	122.356
1200.51	121.61
1203.4	33.449
1206.29	2.829
1209.18	5.454
1212.08	27.288
1214.97	29.006
1217.86	144.739
1220.75	87.934
1223.65	71.852
1226.54	14.281
1229.43	142.646
1232.33	44.54
1235.22	70.136
1238.11	53.65
1241	3.509
1243.9	8.082
1246.79	35.442
1249.68	71.33
1252.57	120.542
1255.47	40.047
1258.36	31.979
1261.25	20.784
1264.14	74.654
1267.04	48.718
1269.93	63.942
1272.82	0
