Measurement: Raman, 780 nm, unoriented, Raman Data Processed
Mineral: Jamesonite
Rruff sample: R050432
Ideal chemistry: Pb^2+^_4_Fe^2+^Sb^3+^_6_S^2-^_14_
Locality: San Jose mine, Oruro District, Bolivia
Source: University of Arizona Mineral Museum
Description: Grayish black coarse acicular crystals
Measured chemistry: Pb_4.00_Fe_1.00_(Sb_5.95_As_0.05_)_Î£=6_S_14.00_
Raman shift (cm-1)	intensity
157.423	0
160.315	0.038704
163.208	1.00866
166.101	0.191963
168.994	1.66129
171.886	1.07105
174.779	1.08062
177.672	0.052017
180.564	2.56392
183.457	0.602299
186.35	2.62434
189.242	0.003597
192.135	1.97174
195.028	5.43328
197.921	3.29847
200.813	4.0976
203.706	4.66884
206.599	5.65768
209.491	5.39366
212.384	5.758
215.277	6.5133
218.169	7.33327
221.062	6.2173
223.955	8.30104
226.847	8.75547
229.74	7.88189
232.633	9.85318
235.526	9.1822
238.418	8.50939
241.311	9.95116
244.204	7.49278
247.096	6.56841
249.989	4.74993
252.882	6.74308
255.774	5.75539
258.667	5.52595
261.56	4.75285
264.453	4.51502
267.345	4.45983
270.238	4.4674
273.131	4.49911
276.023	4.41085
278.916	3.65524
281.809	2.71433
284.702	2.05602
287.594	1.70484
290.487	0.384182
293.38	0.013472
296.272	1.03584
299.165	0.519669
302.058	2.32872
304.95	2.96593
307.843	6.82765
310.736	7.89312
313.628	9.40219
316.521	12.6353
319.414	13.2722
322.307	14.5893
325.199	14.9532
328.092	10.633
330.985	7.68591
333.877	6.21421
336.77	3.1092
339.663	1.93334
342.556	0.581802
345.448	0.311422
348.341	1.07048
351.234	0.65328
354.126	0.616274
357.019	0.089301
359.912	1.07998
362.805	0.47316
365.697	0.71664
368.59	1.35537
371.483	0.928497
374.375	1.04134
377.268	0.33174
380.161	0.381585
383.053	2.50325
385.946	1.92613
388.839	2.17952
391.731	0.087334
394.624	1.79705
397.517	0.484547
400.41	0.534181
403.302	1.53242
406.195	1.43801
409.088	0.113294
411.98	1.04132
414.873	1.99109
417.766	2.32165
420.659	1.67694
423.551	2.25458
426.444	2.38064
429.337	0.139448
432.229	1.77184
435.122	0.1246
438.015	0.502224
440.907	1.56896
443.8	0.804276
446.693	1.55575
449.586	1.35773
452.478	1.65149
455.371	1.66592
458.264	0.935241
461.156	2.18896
464.049	0.95099
466.942	1.66424
469.834	1.52312
472.727	0.442822
475.62	0.908549
478.513	1.30199
481.405	0.663944
484.298	0.698976
487.191	0.724246
490.083	0.861832
492.976	0.142793
495.869	1.2527
498.762	1.19987
501.654	0.946959
504.547	1.07337
507.44	0.090988
510.332	1.90018
513.225	0.968012
516.118	1.80677
519.01	1.10615
521.903	0.997931
524.796	0.705734
527.688	0.977417
530.581	0.104867
533.474	1.51481
536.367	0.83395
539.259	1.97092
542.152	0.273051
545.045	1.46071
547.937	0.830863
550.83	1.77731
553.723	2.18864
556.615	1.72978
559.508	0.110227
562.401	1.60206
565.294	1.5431
568.186	0.560106
571.079	2.20082
573.972	1.03067
576.864	0.642868
579.757	1.21343
582.65	0.85593
585.543	1.77089
588.435	0.709901
591.328	1.98437
594.221	1.16214
597.113	1.90529
600.006	1.42622
602.899	0.732218
605.791	1.1554
608.684	1.77484
611.577	1.39045
614.47	0.94641
617.362	2.26147
620.255	0.885094
623.148	1.31461
626.04	1.23247
628.933	1.03146
631.826	1.14699
634.718	1.26115
637.611	0.908412
640.504	0.440858
643.397	0.552111
646.289	1.24025
649.182	0.774822
652.075	0.475431
654.967	2.13926
657.86	1.66265
660.753	0.857212
663.645	0.895804
666.538	0.563772
669.431	2.188
672.324	1.17002
675.216	0.496369
678.109	1.13014
681.002	1.33444
683.894	0.11951
686.787	2.10768
689.68	0.884985
692.572	0.021544
695.465	0.830609
698.358	0.008887
701.251	0.136176
704.143	0.662566
707.036	1.28321
709.929	0.81008
712.821	1.14662
715.714	0.104249
718.607	0.755953
721.5	0.552073
724.392	1.41762
727.285	0.262892
730.178	0.084692
733.07	1.6653
735.963	0.394685
738.856	1.62138
741.749	1.61973
744.641	0.575087
747.534	0.750563
750.427	1.42019
753.319	1.12892
756.212	0.131823
759.105	1.06937
761.997	0.400539
764.89	1.47937
767.783	0.461534
770.676	1.42324
773.568	1.38533
776.461	1.11796
779.354	0.724361
782.246	0.340906
785.139	0.532948
788.032	1.12434
790.924	2.33704
793.817	0.160113
796.71	0.473353
799.602	1.4183
802.495	1.57317
805.388	1.39859
808.281	1.03164
811.173	0.113151
814.066	1.37998
816.959	2.02597
819.851	1.00629
822.744	0.705437
825.637	1.26997
828.529	1.7284
831.422	0.921649
834.315	0.120253
837.208	3.11614
840.1	1.54365
842.993	1.64739
845.886	2.08101
848.778	1.91826
851.671	0.854091
854.564	2.36885
857.457	0.748512
860.349	1.98963
863.242	1.24472
866.135	2.51408
869.027	0.99264
871.92	1.4734
874.813	1.15941
877.705	1.79321
880.598	2.24738
883.491	1.36037
886.384	1.88546
889.276	1.61715
892.169	2.33671
895.062	1.68402
897.954	1.90258
900.847	1.22307
903.74	1.01619
906.632	1.07865
909.525	0.580083
912.418	0.185645
915.311	0.068574
918.203	0.542835
921.096	0.130587
923.989	1.17732
926.881	1.2856
929.774	1.33501
932.667	1.22303
935.559	1.38264
938.452	1.28004
941.345	0.838533
944.238	2.96252
947.13	2.16561
950.023	1.42688
952.916	1.31561
955.808	1.3553
958.701	2.19859
961.594	0.544104
964.486	1.20795
967.379	2.01895
970.272	0.914789
973.165	0.333535
976.057	0.587538
978.95	0.736088
981.843	0.628424
984.735	0.597727
987.628	1.89631
990.521	0.735413
993.413	0.577402
996.306	0.494503
999.199	2.32698
1002.09	1.16565
1004.98	1.42952
1007.88	0.012247
1010.77	1.53258
1013.66	0.108839
1016.55	1.10029
1019.45	1.25958
1022.34	0.398672
1025.23	1.90939
1028.13	1.36628
1031.02	0.888548
1033.91	0.872058
1036.8	0.248309
1039.7	1.03406
1042.59	0.682315
1045.48	0.191662
1048.38	1.37668
1051.27	2.81702
1054.16	1.49609
1057.05	2.0668
1059.95	1.39101
1062.84	0.177486
1065.73	0.837662
1068.62	0.135228
1071.52	1.33718
1074.41	0.901659
1077.3	1.24895
1080.19	0.368499
1083.09	0.414112
1085.98	0.87447
1088.87	0.795218
1091.77	0.196586
1094.66	0.140719
1097.55	1.40676
1100.44	0.990433
1103.34	0.34406
1106.23	1.21247
1109.12	2.41544
1112.01	0.059699
1114.91	0.211783
1117.8	0.78755
1120.69	0.338299
1123.59	0.912805
1126.48	0.241264
1129.37	1.26897
1132.26	1.96575
1135.16	1.40817
1138.05	0.486615
1140.94	1.39317
1143.83	1.28438
1146.73	0.645076
1149.62	0.083412
1152.51	0.307668
1155.4	0.41769
1158.3	0.700129
1161.19	1.95326
1164.08	0.293627
1166.98	1.48529
1169.87	1.4147
1172.76	2.05867
1175.65	1.97595
1178.55	0.986771
1181.44	2.15828
1184.33	0.198402
1187.22	0.41167
1190.12	1.6481
1193.01	1.65012
1195.9	1.95528
1198.8	1.91333
1201.69	0.873372
1204.58	1.32657
1207.47	0.223545
1210.37	1.12695
1213.26	1.70001
1216.15	0.504326
1219.04	0.199367
1221.94	1.36264
1224.83	0.503502
1227.72	1.61353
1230.62	0.979896
1233.51	0.697899
1236.4	0.310206
1239.29	1.3281
1242.19	0.657032
1245.08	0.798236
1247.97	0.997639
1250.86	0.149922
1253.76	0.962088
1256.65	0.408892
1259.54	0.049279
1262.43	0.29243
1265.33	0.91906
1268.22	0.245075
1271.11	0.510636
1274.01	1.9522
1276.9	1.6199
1279.79	1.76755
1282.68	1.23566
1285.58	1.32622
