Measurement: Raman, 532 nm, unoriented, Raman Data Processed
Mineral: Jamesonite
Rruff sample: R050432
Ideal chemistry: Pb^2+^_4_Fe^2+^Sb^3+^_6_S^2-^_14_
Locality: San Jose mine, Oruro District, Bolivia
Source: University of Arizona Mineral Museum
Description: Grayish black coarse acicular crystals
Measured chemistry: Pb_4.00_Fe_1.00_(Sb_5.95_As_0.05_)_Î£=6_S_14.00_
Raman shift (cm-1)	intensity
118.148	0
121.523	3265.1
124.898	4997.64
128.273	3759.2
131.648	3953.61
135.022	6907.44
138.397	13041.8
141.772	12228.1
145.147	9604.12
148.521	8551.31
151.896	8199.24
155.271	8404.71
158.646	8828.73
162.021	9615.98
165.396	10652.4
168.77	12545.8
172.145	15799
175.52	20414.2
178.895	28910.5
182.27	39861.4
185.645	51931.4
189.019	61816.6
192.394	58663.2
195.769	48001.2
199.144	34828.1
202.519	24814.9
205.893	18970.8
209.268	14611.5
212.643	11846.2
216.018	10126.6
219.393	8391.21
222.767	6633.1
226.142	5447.02
229.517	4780.69
232.892	4920.21
236.267	5533.75
239.641	6907.29
243.016	9177.83
246.391	12946.5
249.766	18064.7
253.141	12864.6
256.516	8004.38
259.89	6435.62
263.265	5123.27
266.64	3642.96
270.015	2462
273.39	1707.07
276.764	1189.04
280.139	826.831
283.514	602.494
286.889	361.431
290.264	244.779
293.638	90.385
297.013	33.958
300.388	62.575
303.763	231.585
307.138	347.049
310.513	24.923
313.887	105.16
317.262	414.988
320.637	433.424
324.012	413.011
327.387	411.539
330.762	393.579
334.136	271.24
337.511	266.671
340.886	181.207
344.261	23.355
347.635	142.361
351.01	268.31
354.385	326.991
357.76	378.675
361.135	681.988
364.51	1111.34
367.884	1771.68
371.259	2298.27
374.634	2874.55
378.009	3753.96
381.384	5138.9
384.759	6691.38
388.133	8183.55
391.508	9065.63
394.883	8948.5
398.258	8265.33
401.633	7393.71
405.007	6453.31
408.382	5704.35
411.757	5027.18
415.132	4492.83
418.507	4163.24
421.881	4030.43
425.256	4037.8
428.631	4452.03
432.006	5038.39
435.381	5939.31
438.755	6804.52
442.13	7850.8
445.505	8768.56
448.88	8821.94
452.255	7619.82
455.63	6038.7
459.004	4683.41
462.379	3592.13
465.754	2874.01
469.129	2232.37
472.504	1755.31
475.878	1439.01
479.253	1162.83
482.628	914.246
486.003	867.163
489.378	700.882
492.753	521.058
496.127	413.82
499.502	340.595
502.877	239.771
506.252	273.552
509.627	231.604
513.001	158.281
516.376	172.758
519.751	190.337
523.126	112.609
526.501	99.755
529.875	66.619
533.25	11.291
536.625	48.058
540	81.993
543.375	40.896
546.75	31.002
550.124	112.65
553.499	158.246
556.874	203.127
560.249	184.201
563.624	160.096
566.998	65.375
570.373	88.527
573.748	49.577
577.123	66.696
580.498	56.238
583.872	35.604
587.247	107.94
590.622	196.864
593.997	311.676
597.372	438.6
600.747	592.334
604.121	609.992
607.496	749.771
610.871	810.286
614.246	838.657
617.621	800.187
620.995	914.515
624.37	1048.99
627.745	1200.31
631.12	1484.16
634.495	1803.56
637.87	2414.55
641.244	3150.44
644.619	4035.37
647.994	4274.86
651.369	3711.71
654.744	2964.42
658.118	2143.65
661.493	1533.02
664.868	1132.35
668.243	929.876
671.618	682.194
674.992	572.164
678.367	463.284
681.742	432.37
685.117	468.413
688.492	500.701
691.867	566.74
695.241	539.604
698.616	548.993
701.991	586.882
705.366	495.474
708.741	487.792
712.115	356.156
715.49	257.375
718.865	286.866
722.24	181.614
725.615	119.253
728.99	62.545
732.364	103.218
735.739	97.208
739.114	72.595
742.489	23.203
745.864	154.104
749.238	130.849
752.613	60.649
755.988	3.872
759.363	12.784
762.738	73.436
766.112	28.195
769.487	11.5
772.862	52.46
776.237	41.436
779.612	17.74
782.987	11.904
786.361	10.33
789.736	88.738
793.111	117.8
796.486	140.206
799.86	114.615
803.235	154.713
806.61	146.821
809.985	109.359
813.36	86.899
816.735	73.917
820.109	76.084
823.484	61.652
826.859	7.6
830.234	26.752
833.609	47.016
836.984	6.872
840.358	112.181
843.733	111.237
847.108	66.561
850.483	114.039
853.858	137.208
857.232	156.411
860.607	6.554
863.982	9.724
867.357	109.453
870.732	34.434
874.106	87.213
877.481	78.713
880.856	23.411
884.231	52.847
887.606	18.054
890.981	5.077
894.355	83.953
897.73	100.314
901.105	17.92
904.48	34.185
907.855	71.507
911.229	53.545
914.604	43.208
917.979	99.17
921.354	130.624
924.729	143.977
928.104	118.108
931.478	284.133
934.853	364.408
938.228	487.353
941.603	636.998
944.977	857.502
948.352	1058
951.727	1422.82
955.102	2004.23
958.477	2309.76
961.852	2736.74
965.226	3006.91
968.601	2787.78
971.976	2185.11
975.351	1702.24
978.726	1261.64
982.101	845.196
985.475	713.249
988.85	583.345
992.225	468.495
995.6	278.304
998.974	314.051
1002.35	289.422
1005.72	138.349
1009.1	169.117
1012.47	114.04
1015.85	137.768
1019.22	144.929
1022.6	120.487
1025.97	190.477
1029.35	164.017
1032.72	123.96
1036.1	128.457
1039.47	132.515
1042.85	127.396
1046.22	121.931
1049.6	87.242
1052.97	131.408
1056.35	178.691
1059.72	182.032
1063.1	51.767
1066.47	103.851
1069.85	61.451
1073.22	61.152
1076.6	100.002
1079.97	12.79
1083.35	51.375
1086.72	98.556
1090.09	117.767
1093.47	145.433
1096.84	29.918
1100.22	117.239
1103.59	138.873
1106.97	84.848
1110.34	76.268
1113.72	22.234
1117.09	28.821
1120.47	98.761
1123.84	12.197
1127.22	68.919
1130.59	139.968
1133.97	125.884
1137.34	193.669
1140.72	132.153
1144.09	161.97
1147.47	99.385
1150.84	121.479
1154.22	149.094
1157.59	72.988
1160.97	111.811
1164.34	48.744
1167.71	35.14
1171.09	35.852
1174.46	38.859
1177.84	21.255
1181.21	1.051
1184.59	4.377
1187.96	40.843
1191.34	60.256
1194.71	6.481
1198.09	12.271
1201.46	9.356
1204.84	30.04
1208.21	10.414
1211.59	54.924
1214.96	59.893
1218.34	55.277
1221.71	18.967
1225.09	11.933
1228.46	49.545
1231.84	4.172
1235.21	33.046
1238.59	92.981
1241.96	22.773
1245.34	26.609
1248.71	69.521
1252.09	11.74
1255.46	20.945
1258.84	48.875
1262.21	61.61
1265.59	52.217
1268.96	18.654
1272.33	30.951
1275.71	9.212
1279.08	33.61
1282.46	88.05
1285.83	41.97
1289.21	82.813
1292.58	67.004
1295.96	5.123
1299.33	55.131
