Measurement: Raman, 532 nm, unoriented, Raman Data Processed
Mineral: Jamesonite
Rruff sample: R050432
Ideal chemistry: Pb^2+^_4_Fe^2+^Sb^3+^_6_S^2-^_14_
Locality: San Jose mine, Oruro District, Bolivia
Source: University of Arizona Mineral Museum
Description: Grayish black coarse acicular crystals
Measured chemistry: Pb_4.00_Fe_1.00_(Sb_5.95_As_0.05_)_Î£=6_S_14.00_
Raman shift (cm-1)	intensity
113.809	0
117.184	25.566
120.559	40.482
123.934	66.845
127.308	65.327
130.683	75.481
134.058	85.709
137.433	83.078
140.808	90.354
144.182	96.675
147.557	97.69
150.932	99.934
154.307	98.447
157.682	139.361
161.057	147.619
164.431	181.89
167.806	214.801
171.181	242.603
174.556	238.318
177.931	246.818
181.305	246.383
184.68	239.065
188.055	244.084
191.43	256.326
194.805	265.962
198.18	251.584
201.554	208.914
204.929	170.39
208.304	159.098
211.679	132.926
215.054	134.375
218.428	125.899
221.803	131.355
225.178	135.088
228.553	123.228
231.928	123.241
235.303	112.097
238.677	99.112
242.052	93.404
245.427	99.386
248.802	98.381
252.176	100.041
255.551	98.066
258.926	94.072
262.301	91.682
265.676	95.77
269.051	93.998
272.425	99.856
275.8	124.771
279.175	151.811
282.55	236.725
285.925	322.878
289.299	377.663
292.674	351.451
296.049	263.366
299.424	221.471
302.799	236.777
306.174	286.453
309.548	399.301
312.923	547.738
316.298	765.168
319.673	855.356
323.048	879.205
326.422	656.409
329.797	449.152
333.172	314.689
336.547	209.083
339.922	140.554
343.297	88.734
346.671	39.6
350.046	27.713
353.421	20.497
356.796	17.405
360.171	5.657
363.545	13.525
366.92	9.455
370.295	4.137
373.67	11.418
377.045	5.147
380.419	9.901
383.794	1.557
387.169	0.393
390.544	2.036
393.919	0.351
397.293	10.326
400.668	2.074
404.043	4.8
407.418	1.59
410.793	2.929
414.168	2.932
417.542	6.837
420.917	6.814
424.292	0.293
427.667	4.159
431.042	3.638
434.417	0.183
437.791	0.994
441.166	5.755
444.541	10.149
447.916	2.921
451.29	2.067
454.665	5.003
458.04	6.382
461.415	7.123
464.79	10.395
468.165	9.421
471.539	6.459
474.914	8.29
478.289	2.31
481.664	3.186
485.039	1.387
488.414	4.691
491.788	0.18
495.163	2.174
498.538	0.187
501.913	4.637
505.288	0.238
508.662	6.282
512.037	0.258
515.412	7.408
518.787	9.541
522.162	2.921
525.536	8.082
528.911	5.062
532.286	4.166
535.661	2.819
539.036	3.493
542.411	3.071
545.785	3.661
549.16	5.841
552.535	0.366
555.91	6.08
559.284	8.292
562.659	13.225
566.034	4.43
569.409	10.661
572.784	7.92
576.159	4.208
579.533	4.569
582.908	6.073
586.283	4.441
589.658	3.299
593.033	8.907
596.407	11.175
599.782	8.062
603.157	6.501
606.532	2.06
609.907	12.033
613.282	4.394
616.656	2.668
620.031	7.624
623.406	9.214
626.781	11.293
630.156	6.456
633.531	16.274
636.905	13.876
640.28	9.726
643.655	5.201
647.03	15.229
650.404	5.515
653.779	16.14
657.154	16.153
660.529	6.82
663.904	1.568
667.279	5.075
670.653	11.985
674.028	5.759
677.403	6.01
680.778	1.598
684.153	8.422
687.528	9.911
690.902	3.174
694.277	3.442
697.652	3.616
701.027	5.206
704.402	6.008
707.776	10.611
711.151	11.412
714.526	1.136
717.901	1.346
721.276	4.466
724.651	9.734
728.025	5.727
731.4	1.941
734.775	3.793
738.15	6.862
741.524	0.288
744.899	4.663
748.274	6.846
751.649	6.818
755.024	0.312
758.399	1.805
761.773	7.622
765.148	4.338
768.523	0.341
771.898	4.679
775.273	7.696
778.648	4.691
782.022	0.17
785.397	0.991
788.772	2.858
792.147	6.219
795.521	0.417
798.896	3.674
802.271	6.325
805.646	2.12
809.021	0.295
812.396	3.529
815.77	10.808
819.145	4.343
822.52	5.079
825.895	3.895
829.27	3.258
832.644	6.098
836.019	3.674
839.394	4.155
842.769	5.117
846.144	3.978
849.519	2.743
852.893	1.05
856.268	3.799
859.643	4.534
863.018	12.491
866.393	13.361
869.767	12.54
873.142	6.146
876.517	5.953
879.892	5.747
883.267	10.233
886.641	3.166
890.016	5.285
893.391	1.99
896.766	8.494
900.141	7.08
903.516	7.51
906.89	2.469
910.265	3.322
913.64	6.689
917.015	10.407
920.39	12.02
923.764	8.686
927.139	5.083
930.514	1.019
933.889	1.878
937.264	5.742
940.638	6.781
944.013	6.459
947.388	11.189
950.763	7.751
954.138	5.011
957.513	6.874
960.887	6.23
964.262	17.836
967.637	3.084
971.012	13.254
974.387	5.13
977.761	6.964
981.136	1.273
984.511	4.861
987.886	3.665
991.261	5.385
994.635	11.599
998.01	1.921
1001.38	3.361
1004.76	7.611
1008.13	11.115
1011.51	3.316
1014.88	9.684
1018.26	1.171
1021.63	2.942
1025.01	4.792
1028.38	4.911
1031.76	5.79
1035.13	6.713
1038.51	8.272
1041.88	13.318
1045.26	10.836
1048.63	9.767
1052.01	11.208
1055.38	6.328
1058.76	3.631
1062.13	4.735
1065.51	3.231
1068.88	6.886
1072.26	4.595
1075.63	4.106
1079.01	9.044
1082.38	4.172
1085.76	2.568
1089.13	9.784
1092.51	1.086
1095.88	11.773
1099.26	12.551
1102.63	7.708
1106	4.003
1109.38	10.193
1112.75	1.976
1116.13	6.448
1119.5	5.016
1122.88	3.949
1126.25	12.733
1129.63	14.294
1133	6.994
1136.38	8.355
1139.75	0.319
1143.13	1.903
1146.5	4.433
1149.88	4.058
1153.25	12.686
1156.63	17.696
1160	7.404
1163.38	5.699
1166.75	4.76
1170.13	3.65
1173.5	4.207
1176.88	2.309
1180.25	7.023
1183.62	6.404
1187	3.429
1190.38	3.034
1193.75	10.049
1197.12	7.963
1200.5	11.739
1203.87	5.027
1207.25	11.447
1210.62	6.988
1214	4.529
1217.37	10.536
1220.75	1.686
1224.12	3.079
1227.5	3.425
1230.87	7.808
1234.25	10.239
1237.62	0.93
1241	7.966
1244.37	6.419
1247.75	10.007
1251.12	4.154
1254.5	3.056
1257.87	6.535
1261.25	11.349
1264.62	4.497
1267.99	9.528
1271.37	5.981
1274.74	6.056
1278.12	5.008
1281.49	1.565
1284.87	4.439
1288.24	4.957
1291.62	3.904
1294.99	0.467
1298.37	2.262
