Measurement: Raman, 532 nm, unoriented, Raman Data Processed
Mineral: Jamesonite
Rruff sample: R050430
Ideal chemistry: Pb^2+^_4_Fe^2+^Sb^3+^_6_S^2-^_14_
Locality: Zacatecas, Mexico
Source: University of Arizona Mineral Museum
Description: Grayish black coarsely acicular crystals
Measured chemistry: Pb_4.02_Fe_1.00_Sb_5.98_S_14.00_
Raman shift (cm-1)	intensity
102.238	0
105.613	172.77
108.988	2122.85
112.363	5248.69
115.738	10184.6
119.113	12791.9
122.487	12135.6
125.862	11004.6
129.237	10967.5
132.612	10878.7
135.986	9420.67
139.361	7272.85
142.736	5075.4
146.111	4049.84
149.486	3430.24
152.861	2823.82
156.235	2188.89
159.61	1704.27
162.985	1371.4
166.36	1122.93
169.735	805.307
173.109	578.746
176.484	457.184
179.859	397.599
183.234	393.973
186.609	401.433
189.984	356.167
193.358	289.946
196.733	446.46
200.108	862.145
203.483	1362.23
206.858	1180.14
210.232	646.262
213.607	253.32
216.982	8.799
220.357	153.37
223.732	109.636
227.107	126.017
230.481	80.467
233.856	54.282
237.231	27.007
240.606	3.848
243.981	255.197
247.355	441.476
250.73	645.992
254.105	578.453
257.48	824.092
260.855	1115.4
264.229	1393.38
267.604	1673.26
270.979	1819.11
274.354	1860.13
277.729	2100.86
281.104	2249.76
284.478	2443.9
287.853	2515.37
291.228	2491.34
294.603	2396.39
297.978	2362.11
301.352	2581.85
304.727	2545.66
308.102	2121.66
311.477	1678.15
314.852	1333.28
318.227	1147.15
321.601	1019.4
324.976	905.605
328.351	882.573
331.726	814.032
335.101	720.446
338.475	602.029
341.85	655.584
345.225	576.232
348.6	536.238
351.975	428.174
355.349	421.049
358.724	238.074
362.099	212.573
365.474	111.554
368.849	113.253
372.224	42.616
375.598	60.349
378.973	43.896
382.348	11.907
385.723	79.041
389.098	18.479
392.472	17.823
395.847	14.896
399.222	87.25
402.597	98.375
405.972	86.739
409.346	7.19
412.721	139.308
416.096	326.028
419.471	494.918
422.846	687.698
426.221	970.983
429.595	1098.87
432.97	1434.76
436.345	1604.88
439.72	1729.98
443.095	1665.82
446.47	1723.35
449.844	1691.11
453.219	1595.6
456.594	1542.88
459.969	1375.41
463.344	1372.38
466.718	1369.54
470.093	1412.93
473.468	1553.84
476.843	1653.02
480.218	1786.81
483.592	2033.57
486.967	2240
490.342	2382.89
493.717	2601.89
497.092	2824.51
500.466	3140.15
503.841	3341.45
507.216	3427.63
510.591	3334.84
513.966	2944.5
517.341	2492.84
520.715	1891.57
524.09	1450.47
527.465	1043.37
530.84	690.953
534.215	436.419
537.589	283.294
540.964	36.809
544.339	43.68
547.714	60.741
551.089	68.171
554.464	58.536
557.838	74.826
561.213	27.164
564.588	19.349
567.963	113.021
571.338	246.904
574.713	372.398
578.087	497.749
581.462	590.479
584.837	718.729
588.212	1065.53
591.586	1332.47
594.961	1561
598.336	1946.06
601.711	2230.58
605.086	2623.11
608.461	2983.44
611.835	3489.49
615.21	3588.76
618.585	3799.7
621.96	4084.85
625.335	4219.47
628.709	4452.7
632.084	4810.91
635.459	5372.21
638.834	6178.33
642.209	6713.57
645.584	6544.52
648.958	5164.77
652.333	3813.27
655.708	2711.66
659.083	1921.38
662.458	1381.77
665.833	1004.61
669.207	791.246
672.582	426.777
675.957	350.864
679.332	201.765
682.706	118.773
686.081	163.507
689.456	133.275
692.831	1.709
696.206	83.894
699.581	63.733
702.955	24.887
706.33	17.133
709.705	61.48
713.08	31.907
716.455	49.979
719.83	72.834
723.204	24.097
726.579	64.56
729.954	22.749
733.329	17.542
736.704	2.05
740.078	47.487
743.453	8.19
746.828	90.979
750.203	51.351
753.578	10.573
756.952	53.162
760.327	95.715
763.702	31.459
767.077	36.916
770.452	93.003
773.826	156.677
777.201	88.5
780.576	89.152
783.951	80.706
787.326	140.828
790.701	103.393
794.075	75.992
797.45	141.51
800.825	21.206
804.2	74.538
807.575	45.914
810.95	2.673
814.324	41.646
817.699	22.233
821.074	28.079
824.449	45.407
827.823	29.562
831.198	73.269
834.573	49.676
837.948	65.663
841.323	65.226
844.698	81.508
848.072	32.489
851.447	36.101
854.822	101.119
858.197	70.854
861.572	100.257
864.946	102.718
868.321	107.093
871.696	27.651
875.071	23.95
878.446	23.024
881.821	14.794
885.195	39.232
888.57	71.51
891.945	103.4
895.32	80.874
898.695	101.305
902.07	25.963
905.444	10.014
908.819	69.414
912.194	16.794
915.569	93.235
918.943	20.472
922.318	46.833
925.693	37.032
929.068	139.532
932.443	138.513
935.818	197.938
939.192	291.893
942.567	389.474
945.942	489.514
949.317	609.958
952.692	831.835
956.067	980.594
959.441	1105.81
962.816	1305.42
966.191	1122.64
969.566	855.516
972.941	760.125
976.315	495.87
979.69	445.219
983.065	328.945
986.44	236.601
989.815	189.145
993.19	147.737
996.564	86.282
999.939	86.93
1003.31	56.851
1006.69	90.445
1010.06	29.451
1013.44	24.926
1016.81	2.699
1020.19	38.412
1023.56	7.087
1026.94	90.04
1030.31	33.195
1033.69	37.661
1037.06	24.188
1040.44	68.461
1043.81	0.575
1047.19	35.911
1050.56	42.21
1053.94	55.294
1057.31	126.133
1060.69	50.853
1064.06	46.009
1067.43	14.124
1070.81	17.078
1074.18	21.329
1077.56	35.524
1080.93	15.419
1084.31	6.286
1087.68	18.142
1091.06	14.346
1094.43	53.582
1097.81	75.943
1101.18	75.296
1104.56	75.327
1107.93	92.009
1111.31	77.897
1114.68	103.388
1118.06	94.658
1121.43	94.987
1124.81	47.717
1128.18	36.185
1131.56	74.65
1134.93	73.024
1138.31	56.418
1141.68	75.082
1145.06	76.756
1148.43	39.352
1151.81	43.103
1155.18	115.558
1158.56	20.421
1161.93	67.33
1165.31	0.601
1168.68	28.76
1172.06	92.543
1175.43	51.293
1178.8	89.574
1182.18	64.686
1185.55	102.436
1188.93	36.083
1192.3	15.962
1195.68	68.608
1199.05	35.458
1202.43	58.163
1205.8	56.254
1209.18	36.404
1212.55	26.167
1215.93	61.131
1219.3	36.271
1222.68	11.234
1226.05	62.624
1229.43	33.215
1232.8	56.208
1236.18	116.461
1239.55	55.007
1242.93	65.351
1246.3	86.872
1249.67	87.887
1253.05	0.391
1256.42	68.602
1259.8	44.372
1263.17	44.174
1266.55	51.5
1269.92	81.856
1273.3	5.842
1276.67	85.659
1280.05	97.297
1283.42	92.784
1286.8	268.75
1290.17	162.527
1293.55	111.253
1296.92	36.349
1300.3	41.365
