Measurement: Raman, 532 nm, unoriented, Raman Data Processed
Mineral: Jamesonite
Rruff sample: R050431
Ideal chemistry: Pb^2+^_4_Fe^2+^Sb^3+^_6_S^2-^_14_
Locality: Trinacria mine, Lake Poopo, Oruro, Bolivia
Source: University of Arizona Mineral Museum
Description: Aggregate of black coarse prismatic crystals, intimately mixed with sphalerite
Measured chemistry: lighter phase: (Pb_3.70_Zn_0.30_)_Σ=4_(Fe_0.97_Cu_0.03_)_Σ=1_Sb_6.00_S_14.00_ ; darker phase: (Zn_0.81_Fe_0.17_Cu_0.02_)_Σ=1_S_1.00_
Raman shift (cm-1)	intensity
150.79	0
153.683	0.164917
156.576	0.946396
159.468	1.17445
162.361	0.375854
165.254	0.355942
168.147	1.61879
171.039	4.01642
173.932	1.52115
176.825	3.66571
179.717	3.86867
182.61	6.26762
185.503	6.88371
188.395	8.83198
191.288	6.62608
194.181	8.56581
197.073	7.39853
199.966	10.8004
202.859	13.0183
205.752	12.5002
208.644	14.2906
211.537	13.5424
214.43	15.9932
217.322	15.596
220.215	16.7151
223.108	16.9133
226	16.7974
228.893	21.0869
231.786	19.6482
234.679	21.2011
237.571	21.9678
240.464	22.0135
243.357	21.6682
246.249	19.0592
249.142	20.4224
252.035	18.1861
254.928	16.0248
257.82	10.4028
260.713	7.38719
263.606	8.40311
266.498	6.88754
269.391	6.05357
272.284	5.50065
275.176	4.89352
278.069	3.9091
280.962	1.73109
283.854	0.585129
286.747	1.06113
289.64	2.11885
292.533	1.24396
295.425	3.9761
298.318	6.48965
301.211	7.77761
304.103	10.4079
306.996	13.1121
309.889	19.7112
312.781	26.7518
315.674	32.8441
318.567	39.1174
321.46	45.0568
324.352	50.3775
327.245	47.3768
330.138	40.6504
333.03	30.1673
335.923	17.3117
338.816	9.45199
341.709	6.12402
344.601	1.80653
347.494	1.06529
350.387	0.069595
353.279	0.492371
356.172	0.773003
359.065	0.849869
361.957	1.20841
364.85	0.453918
367.743	0.351929
370.635	0.760078
373.528	0.96479
376.421	1.16699
379.314	1.30704
382.206	1.46529
385.099	2.40825
387.992	2.61931
390.884	3.15565
393.777	4.50411
396.67	2.98376
399.562	2.96306
402.455	3.73317
405.348	3.89572
408.241	4.33727
411.133	4.19413
414.026	4.37198
416.919	3.80375
419.811	3.22
422.704	3.66185
425.597	3.10693
428.49	3.61995
431.382	3.88117
434.275	2.05299
437.168	2.56622
440.06	3.51514
442.953	3.67568
445.846	1.37993
448.738	4.00805
451.631	4.24823
454.524	2.63946
457.416	2.5843
460.309	2.89082
463.202	1.16521
466.095	1.8112
468.987	2.73764
471.88	1.48616
474.773	2.21547
477.665	1.63145
480.558	0.7173
483.451	2.05143
486.344	1.65028
489.236	0.968269
492.129	0.438381
495.022	1.14289
497.914	1.30068
500.807	0.249481
503.7	0.863632
506.592	0.069527
509.485	0.684669
512.378	0.97636
515.27	0.063927
518.163	0.81847
521.056	0.489483
523.949	0.756733
526.841	0.035301
529.734	0.620892
532.627	1.37492
535.519	0.691971
538.412	1.57163
541.305	0.280319
544.197	0.284428
547.09	0.364452
549.983	1.18502
552.876	1.68101
555.768	0.581806
558.661	0.662609
561.554	1.23119
564.446	2.25936
567.339	0.753017
570.232	1.27079
573.125	0.203373
576.017	0.386562
578.91	0.266701
581.803	0.669632
584.695	0.941639
587.588	0.845634
590.481	1.52282
593.373	1.29364
596.266	1.43308
599.159	0.957195
602.052	2.01214
604.944	1.0808
607.837	1.82482
610.73	1.62241
613.622	1.72962
616.515	0.439537
619.408	0.779713
622.3	0.732586
625.193	0.938442
628.086	1.82225
630.979	1.0169
633.871	1.10685
636.764	1.42909
639.657	0.924023
642.549	0.589531
645.442	0.345963
648.335	1.17865
651.227	0.088303
654.12	0.170574
657.013	0.20108
659.905	1.14788
662.798	0.705418
665.691	0.355659
668.584	0.275269
671.476	2.26032
674.369	0.217979
677.262	0.449516
680.154	0.85083
683.047	1.04658
685.94	1.83461
688.832	1.13996
691.725	0.35947
694.618	0.107819
697.511	1.33714
700.403	0.268024
703.296	0.078503
706.189	1.61335
709.081	1.37761
711.974	2.41469
714.867	0.701969
717.76	1.21275
720.652	0.854542
723.545	0.323334
726.438	1.02231
729.33	0.335964
732.223	0.286896
735.116	0.851414
738.008	0.706074
740.901	0.806419
743.794	1.52989
746.687	0.89856
749.579	1.57135
752.472	0.95118
755.365	0.849201
758.257	0.81739
761.15	0.737942
764.043	0.852989
766.935	1.23008
769.828	0.24295
772.721	1.6255
775.614	0.763245
778.506	0.887604
781.399	1.939
784.292	0.230003
787.184	0.642193
790.077	1.51505
792.97	0.48101
795.862	1.11352
798.755	0.425854
801.648	1.31281
804.54	1.04345
807.433	1.5328
810.326	1.50981
813.219	1.45824
816.111	0.564552
819.004	1.09051
821.897	2.04777
824.789	1.43492
827.682	2.16445
830.575	1.81396
833.467	1.45585
836.36	0.549046
839.253	2.02333
842.146	2.02681
845.038	1.86964
847.931	0.676544
850.824	1.02118
853.716	2.73939
856.609	1.69746
859.502	1.9974
862.394	0.925179
865.287	2.30082
868.18	0.800594
871.073	2.4243
873.965	0.974335
876.858	2.56384
879.751	1.34244
882.643	1.3554
885.536	1.97961
888.429	1.02987
891.322	1.36955
894.214	1.74761
897.107	1.51501
900	0.843575
902.892	1.56019
905.785	0.918213
908.678	0.352806
911.57	0.322987
914.463	0.522545
917.356	0.263885
920.249	1.37424
923.141	0.619736
926.034	0.77177
928.927	1.08868
931.819	0.200245
934.712	1.43447
937.605	0.925179
940.497	0.711853
943.39	0.552631
946.283	0.205208
949.176	1.97879
952.068	0.401531
954.961	2.1032
957.854	1.68339
960.746	2.67913
963.639	1.74622
966.532	1.8277
969.424	1.94893
972.317	2.8821
975.21	1.33933
978.102	1.18541
980.995	1.36733
983.888	1.34804
986.781	2.26263
989.673	0.248726
992.566	0.034264
995.459	1.60016
998.351	0.289299
1001.24	0.054718
1004.14	0.091736
1007.03	1.56991
1009.92	0.946152
1012.82	1.6958
1015.71	0.822277
1018.6	0.721989
1021.49	0.920757
1024.39	1.61398
1027.28	0.40276
1030.17	0.053585
1033.06	2.00434
1035.96	1.55679
1038.85	1.17302
1041.74	0.734425
1044.63	1.40755
1047.53	1.46999
1050.42	0.788475
1053.31	0.578228
1056.2	0.600227
1059.1	1.40372
1061.99	1.59629
1064.88	1.33884
1067.78	1.3163
1070.67	0.941872
1073.56	1.31327
1076.45	0.950089
1079.35	0.128887
1082.24	0.481831
1085.13	1.09087
1088.03	0.44611
1090.92	0.072235
1093.81	0.816158
1096.7	0.816776
1099.6	0.997635
1102.49	0.940353
1105.38	0.44725
1108.27	1.55175
1111.17	1.57958
1114.06	0.309601
1116.95	0.456402
1119.85	1.31115
1122.74	0.365837
1125.63	0.594711
1128.52	0.872852
1131.42	0.753498
1134.31	1.3212
1137.2	0.243546
1140.09	1.08255
1142.99	1.79908
1145.88	1.35274
1148.77	0.225201
1151.66	0.665558
1154.56	1.01915
1157.45	0.274822
1160.34	1.31377
1163.23	0.650734
1166.13	1.85423
1169.02	1.07018
1171.91	0.966789
1174.81	1.58033
1177.7	0.675983
1180.59	1.21585
1183.48	0.76067
1186.38	1.82118
1189.27	0.255398
1192.16	1.72561
1195.06	0.924122
1197.95	0.014217
1200.84	0.931271
1203.73	0.644947
1206.63	1.36416
1209.52	1.70951
1212.41	1.57541
1215.3	0.51046
1218.2	1.17907
1221.09	0.6059
1223.98	0.488216
1226.88	1.08863
1229.77	1.20684
1232.66	0.711685
1235.55	1.18354
1238.44	0.715889
1241.34	1.22582
1244.23	0.9655
1247.12	0.318039
1250.02	0.82061
1252.91	1.94471
1255.8	0.474758
1258.69	0.03458
1261.59	0.012386
1264.48	1.58685
1267.37	0.995773
1270.27	1.55848
1273.16	1.09709
1276.05	1.38597
1278.94	0.216007
1281.84	1.38526
1284.73	0.33247
1287.62	0.942318
1290.51	1.82676
1293.41	1.42331
1296.3	1.64127
1299.19	0.048313
1302.09	0.363029
