Measurement: Raman, 780 nm, unoriented, Raman Data Processed
Mineral: Jamesonite
Rruff sample: R050431
Ideal chemistry: Pb^2+^_4_Fe^2+^Sb^3+^_6_S^2-^_14_
Locality: Trinacria mine, Lake Poopo, Oruro, Bolivia
Source: University of Arizona Mineral Museum
Description: Aggregate of black coarse prismatic crystals, intimately mixed with sphalerite
Measured chemistry: lighter phase: (Pb_3.70_Zn_0.30_)_Σ=4_(Fe_0.97_Cu_0.03_)_Σ=1_Sb_6.00_S_14.00_ ; darker phase: (Zn_0.81_Fe_0.17_Cu_0.02_)_Σ=1_S_1.00_
Raman shift (cm-1)	intensity
154.048	0
156.94	0.662834
159.833	0.626968
162.726	0.146057
165.619	1.33127
168.511	2.3796
171.404	2.26207
174.297	2.42843
177.189	2.51974
180.082	4.36476
182.975	2.39688
185.868	4.06916
188.76	3.72169
191.653	6.78848
194.546	8.57478
197.438	9.721
200.331	10.6404
203.224	11.6815
206.117	14.6108
209.009	14.8514
211.902	16.7983
214.795	18.8098
217.687	19.9127
220.58	19.9741
223.473	22.2751
226.365	21.7455
229.258	22.1186
232.151	23.8631
235.043	22.0993
237.936	20.8231
240.829	21.1457
243.722	21.2422
246.614	19.7377
249.507	17.2015
252.4	17.7091
255.292	16.1063
258.185	16.2882
261.078	15.2075
263.971	16.0289
266.863	16.4848
269.756	14.3207
272.649	13.829
275.541	11.1161
278.434	9.81089
281.327	5.56388
284.219	2.43745
287.112	2.44036
290.005	0.32336
292.897	0.968863
295.79	1.12032
298.683	0.627453
301.576	1.99941
304.468	3.96544
307.361	6.37156
310.254	7.50242
313.146	10.8953
316.039	14.2372
318.932	15.076
321.825	17.9874
324.717	18.0824
327.61	15.0439
330.503	11.7613
333.395	8.61216
336.288	5.37981
339.181	3.19345
342.074	1.38808
344.966	1.76293
347.859	0.598192
350.752	0.479615
353.644	0.120536
356.537	0.196784
359.43	0.088719
362.322	0.780239
365.215	0.376794
368.108	1.13105
371	0.901071
373.893	1.32047
376.786	0.683523
379.679	1.07044
382.571	1.88763
385.464	2.05362
388.357	2.0482
391.249	1.30865
394.142	1.38143
397.035	1.45191
399.928	1.2143
402.82	2.04669
405.713	2.56842
408.606	0.665645
411.498	1.98327
414.391	2.24637
417.284	1.97011
420.176	1.25611
423.069	1.45514
425.962	1.8921
428.854	0.453474
431.747	1.81161
434.64	0.091765
437.533	0.686133
440.425	0.697304
443.318	0.865315
446.211	1.79899
449.103	1.06144
451.996	0.947991
454.889	1.92738
457.781	1.61521
460.674	0.459579
463.567	0.432853
466.46	0.703586
469.352	0.416068
472.245	2.00051
475.138	0.254789
478.031	1.13701
480.923	0.248391
483.816	0.587804
486.709	0.13612
489.601	0.166836
492.494	0.078038
495.387	1.33314
498.279	0.211008
501.172	0.457956
504.065	0.276925
506.957	0.096311
509.85	1.52035
512.743	0.911284
515.636	1.07978
518.528	1.68003
521.421	1.09558
524.314	0.413378
527.206	0.697914
530.099	0.665617
532.992	1.828
535.885	1.17978
538.777	1.15341
541.67	0.666817
544.563	1.13526
547.455	1.42695
550.348	1.43851
553.241	1.53914
556.133	0.735817
559.026	0.774966
561.919	1.69958
564.812	1.08328
567.704	0.447109
570.597	1.6452
573.49	1.09172
576.382	0.703452
579.275	0.413794
582.168	0.982084
585.06	1.02766
587.953	0.205192
590.846	2.07541
593.739	1.47908
596.631	1.96026
599.524	0.923352
602.417	1.22525
605.309	0.842821
608.202	1.44042
611.095	0.554514
613.987	0.802469
616.88	1.25459
619.773	0.130758
622.665	1.05014
625.558	1.09133
628.451	1.3936
631.344	0.968925
634.236	1.01789
637.129	1.08963
640.022	0.370022
642.914	0.233957
645.807	0.895134
648.7	1.3728
651.593	0.583095
654.485	1.58249
657.378	1.17417
660.271	0.356552
663.163	1.05449
666.056	0.905052
668.949	1.24606
671.841	1.22537
674.734	0.398626
677.627	0.839072
680.52	0.927059
683.412	0.173363
686.305	1.67258
689.198	0.827568
692.09	0.21829
694.983	0.957919
697.876	0.631885
700.769	0.80918
703.661	0.847477
706.554	0.744476
709.447	2.33894
712.339	1.20538
715.232	0.376627
718.125	0.80863
721.017	0.340063
723.91	1.17017
726.803	0.563494
729.696	0.247033
732.588	1.42627
735.481	0.644964
738.374	1.10197
741.266	1.61238
744.159	0.500378
747.052	0.657069
749.944	1.18045
752.837	0.815287
755.73	0.530739
758.623	0.583027
761.515	0.384414
764.408	1.24046
767.301	0.335316
770.193	0.837074
773.086	1.21195
775.979	1.08828
778.871	0.571989
781.764	0.372895
784.657	0.414538
787.55	0.694067
790.442	0.996875
793.335	0.269024
796.228	0.364122
799.12	1.31557
802.013	1.44439
804.906	1.12004
807.798	0.801976
810.691	0.091916
813.584	0.768926
816.477	1.02727
819.369	0.287368
822.262	0.131891
825.155	0.858809
828.047	1.1568
830.94	0.985388
833.833	0.599394
836.726	2.25538
839.618	1.34889
842.511	1.4037
845.404	1.21707
848.296	1.36581
851.189	0.579184
854.082	1.20016
856.974	0.412517
859.867	1.32165
862.76	0.934431
865.653	2.05125
868.545	0.795975
871.438	1.59754
874.331	1.13151
877.223	0.617007
880.116	1.36492
883.009	0.66797
885.901	1.10668
888.794	1.22004
891.687	0.867745
894.58	1.05092
897.472	1.19182
900.365	1.30063
903.258	0.415991
906.15	0.691729
909.043	0.075221
911.936	0.212949
914.828	0.535492
917.721	0.467593
920.614	0.658834
923.506	0.605288
926.399	0.637653
929.292	1.78555
932.185	0.790998
935.077	0.585793
937.97	0.37027
940.863	0.235681
943.755	1.73598
946.648	1.12782
949.541	0.75305
952.434	0.810015
955.326	1.33306
958.219	1.11948
961.112	0.440059
964.004	0.917725
966.897	0.65996
969.79	0.243466
972.683	0.132635
975.575	0.561324
978.468	0.258574
981.361	0.504864
984.253	0.539756
987.146	0.59227
990.039	0.474382
992.931	0.718273
995.824	0.2216
998.717	1.57216
1001.61	0.431945
1004.5	0.101883
1007.39	0.060103
1010.29	0.832272
1013.18	0.830473
1016.07	0.687865
1018.97	0.345032
1021.86	0.110046
1024.75	1.466
1027.64	0.643212
1030.54	1.02798
1033.43	0.361085
1036.32	0.809976
1039.21	0.52452
1042.11	0.800468
1045	0.009055
1047.89	1.28144
1050.79	1.50617
1053.68	0.824001
1056.57	1.60467
1059.46	1.16848
1062.36	0.111155
1065.25	0.94897
1068.14	0.599748
1071.03	0.471088
1073.93	0.579943
1076.82	0.723105
1079.71	0.076308
1082.61	0.088881
1085.5	0.999231
1088.39	0.375926
1091.28	0.28533
1094.18	0.451442
1097.07	0.5711
1099.96	0.880972
1102.85	0.504752
1105.75	0.84406
1108.64	1.70195
1111.53	0.042576
1114.42	0.452082
1117.32	0.053951
1120.21	0.075793
1123.1	0.315481
1126	0.051975
1128.89	0.93217
1131.78	1.33569
1134.67	1.12852
1137.57	0.126154
1140.46	1.26971
1143.35	0.814779
1146.24	0.510817
1149.14	0.623767
1152.03	0.622671
1154.92	1.05958
1157.82	1.33092
1160.71	1.57393
1163.6	1.07449
1166.49	0.847868
1169.39	0.60164
1172.28	1.21143
1175.17	1.19201
1178.06	0.296385
1180.96	1.56052
1183.85	0.027198
1186.74	0.533875
1189.63	1.43744
1192.53	1.28851
1195.42	1.42986
1198.31	1.07479
1201.21	0.871987
1204.1	0.759727
1206.99	0.424597
1209.88	1.43091
1212.78	1.13214
1215.67	0.729817
1218.56	0.397588
1221.45	1.4076
1224.35	0.877132
1227.24	1.34885
1230.13	0.994139
1233.03	0.671687
1235.92	1.03733
1238.81	1.48587
1241.7	0.515338
1244.6	0.718679
1247.49	0.329538
1250.38	0.212443
1253.28	0.649962
1256.17	1.09647
1259.06	0.59054
1261.95	0.944979
1264.85	0.709666
1267.74	0.339021
1270.63	1.11099
1273.52	0.644611
1276.42	0.62431
1279.31	1.22988
1282.2	0.777292
1285.09	1.25744
