Measurement: Raman, 780 nm, unoriented, Raman Data Processed
Mineral: Jamesonite
Rruff sample: R050430
Ideal chemistry: Pb^2+^_4_Fe^2+^Sb^3+^_6_S^2-^_14_
Locality: Zacatecas, Mexico
Source: University of Arizona Mineral Museum
Description: Grayish black coarsely acicular crystals
Measured chemistry: Pb_4.02_Fe_1.00_Sb_5.98_S_14.00_
Raman shift (cm-1)	intensity
157.423	0
160.315	1.11978
163.208	0.027023
166.101	0.916132
168.994	1.30699
171.886	1.91573
174.779	0.544449
177.672	1.36107
180.564	1.45086
183.457	1.37658
186.35	0.040485
189.242	0.659962
192.135	1.10734
195.028	1.01339
197.921	1.71664
200.813	1.92309
203.706	0.422201
206.599	1.87394
209.491	2.36025
212.384	0.942804
215.277	1.68815
218.169	2.29551
221.062	1.32129
223.955	2.42369
226.847	3.72334
229.74	2.98003
232.633	4.13933
235.526	3.67017
238.418	4.03849
241.311	4.64086
244.204	4.83337
247.096	4.23698
249.989	5.02442
252.882	4.90466
255.774	6.31985
258.667	6.32004
261.56	7.43255
264.453	9.64074
267.345	9.74225
270.238	9.20531
273.131	9.42198
276.023	7.74684
278.916	5.25128
281.809	4.94312
284.702	3.36358
287.594	0.843456
290.487	0.486504
293.38	0.450223
296.272	0.311447
299.165	1.86784
302.058	2.07261
304.95	4.17053
307.843	4.91509
310.736	6.88974
313.628	9.3539
316.521	10.3567
319.414	12.5574
322.307	13.8907
325.199	12.0126
328.092	10.7063
330.985	8.18326
333.877	4.84192
336.77	3.53323
339.663	1.24594
342.556	2.1606
345.448	0.935968
348.341	0.976536
351.234	0.326649
354.126	0.276181
357.019	0.054988
359.912	0.157351
362.805	0.866994
365.697	0.16938
368.59	0.494602
371.483	0.729455
374.375	0.49731
377.268	0.887317
380.161	0.240774
383.053	1.07126
385.946	0.914647
388.839	0.660495
391.731	1.41209
394.624	0.520383
397.517	0.088974
400.41	1.74568
403.302	1.64565
406.195	1.26071
409.088	1.18278
411.98	1.75754
414.873	1.77391
417.766	1.1299
420.659	1.04377
423.551	0.384852
426.444	0.931207
429.337	0.682794
432.229	0.072665
435.122	0.633515
438.015	0.662133
440.907	0.801363
443.8	0.362171
446.693	0.187674
449.586	1.13364
452.478	1.04991
455.371	1.13389
458.264	0.725656
461.156	0.363447
464.049	0.04091
466.942	1.10351
469.834	1.02971
472.727	0.705581
475.62	0.204493
478.513	0.552115
481.405	0.335471
484.298	0.733607
487.191	0.095577
490.083	0.529094
492.976	0.60614
495.869	0.373449
498.762	0.333532
501.654	0.802887
504.547	0.568695
507.44	0.312301
510.332	1.12371
513.225	0.640882
516.118	0.040169
519.01	0.672477
521.903	0.026216
524.796	0.610377
527.688	0.615565
530.581	0.563665
533.474	0.737919
536.367	0.491147
539.259	0.467467
542.152	0.465836
545.045	0.300023
547.937	0.830495
550.83	1.09868
553.723	0.653481
556.615	0.797045
559.508	0.313931
562.401	0.451883
565.294	0.837294
568.186	1.0868
571.079	0.050338
573.972	0.84584
576.864	1.23273
579.757	1.06633
582.65	0.34413
585.543	0.393097
588.435	0.25541
591.328	0.515117
594.221	1.0504
597.113	0.70746
600.006	0.165711
602.899	0.083295
605.791	1.09366
608.684	0.444532
611.577	1.57755
614.47	0.684893
617.362	0.798715
620.255	0.362681
623.148	1.00148
626.04	0.714838
628.933	0.871169
631.826	0.602561
634.718	1.16427
637.611	0.644006
640.504	0.742548
643.397	1.68768
646.289	0.549733
649.182	0.866782
652.075	1.10716
654.967	0.775568
657.86	1.47569
660.753	0.237808
663.645	0.619864
666.538	0.05207
669.431	1.25899
672.324	0.174485
675.216	0.869511
678.109	0.121082
681.002	0.790754
683.894	1.14539
686.787	0.743141
689.68	0.685234
692.572	0.111966
695.465	0.995049
698.358	1.10817
701.251	0.243362
704.143	0.884845
707.036	1.03358
709.929	0.196569
712.821	1.08633
715.714	0.291964
718.607	0.37061
721.5	0.223459
724.392	0.822056
727.285	0.176831
730.178	1.1051
733.07	1.06601
735.963	0.786533
738.856	0.67165
741.749	0.532179
744.641	0.777232
747.534	1.054
750.427	0.660523
753.319	1.01248
756.212	0.917249
759.105	1.23144
761.997	0.834706
764.89	0.462423
767.783	0.770442
770.676	0.210285
773.568	0.940449
776.461	0.493533
779.354	0.747913
782.246	0.813584
785.139	0.204294
788.032	0.487485
790.924	0.295496
793.817	0.376689
796.71	0.038871
799.602	0.125847
802.495	0.023077
805.388	0.323168
808.281	1.16844
811.173	1.08322
814.066	0.654719
816.959	0.631925
819.851	0.051942
822.744	1.16177
825.637	0.476913
828.529	0.222912
831.422	0.310479
834.315	0.583057
837.208	0.672574
840.1	1.01111
842.993	0.376671
845.886	0.015604
848.778	0.069286
851.671	0.869869
854.564	0.981388
857.457	0.726454
860.349	0.480458
863.242	0.273185
866.135	1.29294
869.027	1.38565
871.92	0.814437
874.813	0.134421
877.705	0.672378
880.598	0.396735
883.491	0.833149
886.384	0.768601
889.276	0.640239
892.169	0.710861
895.062	0.204207
897.954	0.704644
900.847	0.546894
903.74	0.597763
906.632	0.577003
909.525	0.991458
912.418	0.076824
915.311	0.130525
918.203	0.492225
921.096	0.076046
923.989	0.35632
926.881	1.03094
929.774	0.138438
932.667	0.071806
935.559	0.687288
938.452	0.251491
941.345	0.462326
944.238	0.905277
947.13	0.3899
950.023	0.493203
952.916	0.51075
955.808	0.097912
958.701	0.405017
961.594	0.33659
964.486	1.09587
967.379	0.537087
970.272	0.885418
973.165	0.461432
976.057	0.275849
978.95	0.7058
981.843	0.514235
984.735	0.307559
987.628	0.527885
990.521	1.15762
993.413	0.852989
996.306	0.479256
999.199	0.266973
1002.09	0.858856
1004.98	0.814649
1007.88	1.18544
1010.77	0.128328
1013.66	0.017095
1016.55	0.669354
1019.45	0.464904
1022.34	1.06864
1025.23	1.44256
1028.13	0.480202
1031.02	0.919591
1033.91	1.80899
1036.8	0.165473
1039.7	0.900802
1042.59	1.03515
1045.48	0.299123
1048.38	0.831984
1051.27	1.02384
1054.16	1.05741
1057.05	0.577978
1059.95	0.841923
1062.84	0.576692
1065.73	0.237355
1068.62	0.511041
1071.52	0.181418
1074.41	0.479053
1077.3	0.998206
1080.19	0.117247
1083.09	0.809877
1085.98	0.670974
1088.87	0.091018
1091.77	1.04218
1094.66	0.19583
1097.55	0.903637
1100.44	0.67626
1103.34	0.133809
1106.23	0.841516
1109.12	0.259289
1112.01	0.136094
1114.91	0.033933
1117.8	0.598942
1120.69	1.20327
1123.59	0.609439
1126.48	1.20049
1129.37	1.0247
1132.26	0.465429
1135.16	0.817048
1138.05	0.611972
1140.94	0.659571
1143.83	0.189492
1146.73	0.096321
1149.62	0.632096
1152.51	0.764251
1155.4	0.908821
1158.3	0.134121
1161.19	1.22093
1164.08	0.700491
1166.98	0.686014
1169.87	1.41029
1172.76	0.305056
1175.65	0.984726
1178.55	0.735988
1181.44	0.462405
1184.33	0.10156
1187.22	1.33743
1190.12	0.993134
1193.01	0.961041
1195.9	0.981417
1198.8	0.782647
1201.69	1.20961
1204.58	1.06871
1207.47	1.1876
1210.37	0.76282
1213.26	0.370977
1216.15	0.973102
1219.04	0.8741
1221.94	0.071131
1224.83	0.83216
1227.72	1.49525
1230.62	0.721122
1233.51	1.31076
1236.4	0.694416
1239.29	0.84254
1242.19	1.0289
1245.08	0.666717
1247.97	0.696375
1250.86	0.413541
1253.76	0.412355
1256.65	0.753258
1259.54	0.561372
1262.43	0.348979
1265.33	0.404584
1268.22	0.100399
1271.11	0.105614
1274.01	0.703755
1276.9	0.321288
1279.79	0.579469
1282.68	0.612636
1285.58	0.242626
