Measurement: Raman, 780 nm, unoriented, Raman Data Processed
Mineral: Janhaugite
Rruff sample: R070731
Ideal chemistry: Na_3_Mn^2+^_3_Ti^4+^_2_(Si_2_O_7_)_2_(O,OH,F)_4_
Locality: Gjerdingselva (Gjerdingen), Nordmarka, Lunner, Oppland, Norway
Source: Michael Scott
Description: Reddish brown prismatic crystals associated with quartz and aegirine
Raman shift (cm-1)	intensity
161.95	0
164.842	58.8242
167.735	320.062
170.628	160.211
173.52	38.1953
176.413	197.508
179.306	623.766
182.199	1220.78
185.091	1736.38
187.984	2166.44
190.877	2916.76
193.769	3335.99
196.662	3671.48
199.555	3237.47
202.447	2639.33
205.34	1928.53
208.233	1526.77
211.126	809.809
214.018	381.543
216.911	91
219.804	96.0234
222.696	219.455
225.589	33.1094
228.482	90.3106
231.375	95.0156
234.267	102.119
237.16	393.004
240.053	842.422
242.945	1054.36
245.838	1292.41
248.731	1682.3
251.623	1586.31
254.516	1407.23
257.409	1241.36
260.301	967.293
263.194	867.266
266.087	777.834
268.98	693.578
271.872	432.262
274.765	486.635
277.658	509.103
280.55	382.234
283.443	114.049
286.336	176.725
289.228	97.1582
292.121	221.867
295.014	129.131
297.907	237.731
300.799	424.799
303.692	435.809
306.585	625.441
309.477	640.5
312.37	775.231
315.263	800.26
318.156	893.498
321.048	714.127
323.941	716.195
326.834	680.357
329.726	617.924
332.619	561.719
335.512	637.023
338.404	717.269
341.297	762.396
344.19	771.623
347.082	781.752
349.975	860.725
352.868	973.725
355.761	933.711
358.653	778.561
361.546	962.039
364.439	819.936
367.331	802.824
370.224	839.148
373.117	865.889
376.01	1045.71
378.902	1154.93
381.795	1144.31
384.688	1112.61
387.58	1137.93
390.473	939.188
393.366	757.908
396.258	425.906
399.151	315.512
402.044	68.8047
404.937	36.1289
407.829	69.8965
410.722	216.629
413.615	2.18164
416.507	139.67
419.4	35.4961
422.293	7.86328
425.185	70.1484
428.078	17.2422
430.971	10.4062
433.863	44.2852
436.756	69.6738
439.649	27.0098
442.542	10.6367
445.434	201.846
448.327	712.297
451.22	344.18
454.112	340.752
457.005	332.315
459.898	680.113
462.791	906.342
465.683	1044
468.576	1415.81
471.469	1578.83
474.361	1597.46
477.254	1280.15
480.147	1054.96
483.039	861.654
485.932	554.76
488.825	541.916
491.717	605.535
494.61	386.273
497.503	487.965
500.396	286.147
503.288	329.877
506.181	187.742
509.074	129.324
511.966	90.5293
514.859	46.209
517.752	0.511719
520.644	43.875
523.537	5.41406
526.43	218.887
529.323	62.3613
532.215	204.596
535.108	141.248
538.001	219.574
540.893	362.408
543.786	479.647
546.679	530.707
549.572	495.609
552.464	548.871
555.357	622.092
558.25	667.834
561.142	613.154
564.035	666.289
566.928	728.723
569.82	576.856
572.713	520.018
575.606	458.135
578.499	367.893
581.391	445.873
584.284	501.082
587.177	573.234
590.069	740.066
592.962	995.119
595.855	1381.61
598.747	1746.65
601.64	2406.69
604.533	2926.28
607.426	3413.17
610.318	3404.03
613.211	2719.21
616.104	2002.29
618.996	1529.66
621.889	1062.21
624.782	720.031
627.674	462.459
630.567	129.59
633.46	19.3105
636.352	99.9297
639.245	3.0918
642.138	13.4863
645.031	10.209
647.923	56.2441
650.816	121.43
653.709	33.5703
656.601	33.5801
659.494	48.0547
662.387	22.1387
665.279	48.3301
668.172	234.016
671.065	466.213
673.958	502.373
676.85	720.527
679.743	1103.41
682.636	1124.01
685.528	1137.91
688.421	1215.72
691.314	948.711
694.207	815.984
697.099	542.801
699.992	561.699
702.885	470.949
705.777	508.629
708.67	417.768
711.563	555.232
714.455	560.162
717.348	632.764
720.241	674.256
723.134	656.354
726.026	836.934
728.919	1047.2
731.812	1200.73
734.704	1432.07
737.597	1534.81
740.49	1924.24
743.382	2225.69
746.275	2537.12
749.168	2794.77
752.061	3076.67
754.953	3432.79
757.846	3782.45
760.739	4178.75
763.631	4786.73
766.524	5382.85
769.417	6172.8
772.309	6919.48
775.202	7722.3
778.095	8444.86
780.987	9032.82
783.88	9348.82
786.773	9625.38
789.666	9408.1
792.558	8881.89
795.451	7905.62
798.344	6836.13
801.236	5565.56
804.129	4299.58
807.022	3244.45
809.914	2239.02
812.807	1344.22
815.7	717.062
818.593	344.709
821.485	78.1543
824.378	91.0039
827.271	337.496
830.163	274.086
833.056	353.356
835.949	24.5625
838.841	55.3223
841.734	293.508
844.627	511.434
847.519	676.535
850.412	883.404
853.305	1094.69
856.198	1227.11
859.09	1392.88
861.983	1393.08
864.876	1346.64
867.768	1196.37
870.661	1279.39
873.554	1301.35
876.447	1360.02
879.339	1470.81
882.232	1524.89
885.125	1613.78
888.017	1571.05
890.91	1532.91
893.803	1440.37
896.695	1443.01
899.588	1315.72
902.481	1088.99
905.374	848.406
908.266	645.545
911.159	568.293
914.052	460.247
916.944	336.779
919.837	248.043
922.73	127.924
925.622	140.856
928.515	153.375
931.408	183.6
934.301	100.173
937.193	93.0469
940.086	60.9834
942.979	177.539
945.871	113.962
948.764	26.4209
951.657	187.254
954.549	44.6182
957.442	136.13
960.335	153.747
963.227	114.274
966.12	158.052
969.013	126.373
971.906	50.4424
974.798	5.46875
977.691	9.72754
980.584	82.8691
983.476	32.6924
986.369	0.197266
989.262	82.8467
992.154	360.623
995.047	544.202
997.94	740.974
1000.83	896.918
1003.73	903.518
1006.62	908.9
1009.51	778.541
1012.4	612.734
1015.3	406.121
1018.19	242.602
1021.08	132.401
1023.97	1.82422
1026.87	0.702148
1029.76	56.5908
1032.65	32.124
1035.55	88.8379
1038.44	267.188
1041.33	398.518
1044.22	511.394
1047.12	514.667
1050.01	649.761
1052.9	696.826
1055.79	833.904
1058.69	756.932
1061.58	720.713
1064.47	637.288
1067.37	565.766
1070.26	491.704
1073.15	361.7
1076.04	385.854
1078.94	261.271
1081.83	188.248
1084.72	94.8877
1087.61	53.2676
1090.51	43.249
1093.4	88.8252
1096.29	4.83594
1099.18	77.5322
1102.08	25.0361
1104.97	50.8984
1107.86	138.738
1110.76	113.78
1113.65	138.012
1116.54	130.999
1119.43	46.7715
1122.33	118.492
1125.22	97.4199
1128.11	64.5703
1131	0
