Measurement: Raman, 532 nm, unoriented, Raman Data Processed
Mineral: Janhaugite
Rruff sample: R070731
Ideal chemistry: Na_3_Mn^2+^_3_Ti^4+^_2_(Si_2_O_7_)_2_(O,OH,F)_4_
Locality: Gjerdingselva (Gjerdingen), Nordmarka, Lunner, Oppland, Norway
Source: Michael Scott
Description: Reddish brown prismatic crystals associated with quartz and aegirine
Raman shift (cm-1)	intensity
173.642	0
176.535	234.508
179.428	521.352
182.32	869.25
185.213	1141.47
188.106	1479.64
190.998	2055.09
193.891	2484.82
196.784	2566.65
199.677	2162.77
202.569	1722.62
205.462	1374.02
208.355	1031.68
211.247	598.57
214.14	273.652
217.033	98.8086
219.925	10.4961
222.818	66.6641
225.711	27.2266
228.603	60.8242
231.496	65.332
234.389	0.402344
237.282	154.477
240.174	40.3086
243.067	166.785
245.96	318.777
248.852	360.988
251.745	592.809
254.638	714.973
257.531	488.59
260.423	416.371
263.316	185.582
266.209	406.031
269.101	471.93
271.994	387.258
274.887	384.434
277.779	117.609
280.672	79.2891
283.565	164.16
286.457	98.5469
289.35	120.066
292.243	218.312
295.136	134.305
298.028	90.5117
300.921	285.492
303.814	510.945
306.706	495.965
309.599	698.918
312.492	741.121
315.385	797.856
318.277	707.246
321.17	551.09
324.063	670.016
326.955	479.039
329.848	566.231
332.741	732.606
335.633	646.879
338.526	570.344
341.419	793.555
344.312	618.078
347.204	463.18
350.097	537.203
352.99	615.434
355.882	594.168
358.775	598.891
361.668	625.992
364.56	534.547
367.453	616.031
370.346	644.773
373.238	873.445
376.131	945.387
379.024	1179.16
381.917	1204.27
384.809	1293.65
387.702	1141.05
390.595	938.176
393.487	474
396.38	365.926
399.273	830.449
402.166	622.234
405.058	25.9766
407.951	99.3203
410.844	19.1445
413.736	98.0703
416.629	104.801
419.522	87.9727
422.414	94.3633
425.307	38.875
428.2	29.7852
431.092	57.0898
433.985	169.68
436.878	160.227
439.771	11.6172
442.663	57.8867
445.556	283.422
448.449	267.027
451.341	137.504
454.234	76.8008
457.127	504.711
460.019	469.246
462.912	619.746
465.805	879.023
468.697	1112.05
471.59	1263.21
474.483	1197.18
477.376	1043.61
480.268	679.723
483.161	657.152
486.054	680.023
488.946	389.668
491.839	575.34
494.732	285.523
497.625	301.223
500.517	416.227
503.41	429.598
506.303	205.891
509.195	145.723
512.088	23.7852
514.981	211.535
517.873	156.285
520.766	34.6562
523.659	50.6641
526.552	232.859
529.444	134.801
532.337	326.027
535.23	532.523
538.122	451.812
541.015	510.672
543.908	427.789
546.8	402.129
549.693	642.516
552.586	699.367
555.479	662.176
558.371	667.746
561.264	794.578
564.157	830.41
567.049	652.586
569.942	589.176
572.835	428.383
575.727	604.106
578.62	627.269
581.513	664.781
584.405	439.734
587.298	747.043
590.191	767.574
593.084	1171.65
595.976	1376.56
598.869	1702.86
601.762	2142.7
604.654	2394.86
607.547	2680.05
610.44	2427.49
613.332	1925.98
616.225	1328.57
619.118	983.516
622.011	691.91
624.903	288.492
627.796	236.203
630.689	34.7227
633.581	53.5352
636.474	49.5156
639.367	80.5156
642.26	40.3281
645.152	84.0273
648.045	3.25391
650.938	111.043
653.83	3.23828
656.723	24.0781
659.616	28.0078
662.508	19.6094
665.401	170.332
668.294	227.871
671.187	219.066
674.079	262.098
676.972	424.793
679.865	723.066
682.757	806.68
685.65	761.769
688.543	590.457
691.435	392.516
694.328	373.527
697.221	240.137
700.114	314.93
703.006	444.707
705.899	499.613
708.792	478.731
711.684	850.609
714.577	968.008
717.47	1056.22
720.362	1063.66
723.255	1365.41
726.148	1571.91
729.04	1790.52
731.933	1883.54
734.826	1981.01
737.719	2265.52
740.611	2874.44
743.504	3467.91
746.397	3974.04
749.289	4331.06
752.182	4987.57
755.075	5277.05
757.967	5807.92
760.86	6303.41
763.753	7142.62
766.646	8354.18
769.538	9266.5
772.431	10491.9
775.324	11223.3
778.216	12414.8
781.109	13068.2
784.002	13627.1
786.894	13765.4
789.787	13335.8
792.68	12101.5
795.573	11029.2
798.465	9759.2
801.358	7743.9
804.251	5933.74
807.143	4073.07
810.036	3019.38
812.929	1922.44
815.822	953.09
818.714	498.344
821.607	247.09
824.5	37.5234
827.392	77.4883
830.285	71.8711
833.178	344.977
836.07	283.719
838.963	76.4766
841.856	41.543
844.748	357.117
847.641	489.703
850.534	632.473
853.427	761.168
856.319	862.035
859.212	884.527
862.105	899.012
864.997	907.859
867.89	705.121
870.783	589.461
873.675	713.488
876.568	760.144
879.461	1120.57
882.354	1240.27
885.246	1420.93
888.139	1148.26
891.032	1073.82
893.924	934.367
896.817	872.766
899.71	789.586
902.602	780.379
905.495	405.367
908.388	501.09
911.28	500.547
914.173	254.648
917.066	282.91
919.959	245.773
922.851	117.699
925.744	18.3711
928.637	5.79297
931.529	64.707
934.422	44.5977
937.315	49.2539
940.207	181.402
943.1	83.9023
945.993	80.0508
948.886	276.008
951.778	101.191
954.671	430.758
957.564	392.383
960.456	290.602
963.349	375.582
966.242	400.402
969.135	368.633
972.027	563.731
974.92	246.707
977.813	250.562
980.705	310.805
983.598	339.856
986.491	680.285
989.383	880.082
992.276	1393.91
995.169	1543.3
998.062	2241.91
1000.95	2474.99
1003.85	2592.77
1006.74	2229.66
1009.63	1920.77
1012.52	1586.84
1015.42	1282.99
1018.31	1119.31
1021.2	684.051
1024.1	402.539
1026.99	141.242
1029.88	644.719
1032.77	510.426
1035.67	289.555
1038.56	188.008
1041.45	481.57
1044.35	302.625
1047.24	356.66
1050.13	321.144
1053.02	169.09
1055.92	38.1602
1058.81	175.637
1061.7	145.152
1064.59	75.7227
1067.49	232.188
1070.38	47.4336
1073.27	40.625
1076.16	70.7773
1079.06	257.441
1081.95	282.195
1084.84	41.25
1087.73	131.828
1090.63	4.73047
1093.52	27.3672
1096.41	171.789
1099.31	132.43
1102.2	85.9805
1105.09	43.8594
1107.98	111.184
1110.88	245.098
1113.77	411.004
1116.66	249.961
1119.56	85.5039
1122.45	73.2695
1125.34	165.422
1128.23	282.246
1131.13	207.125
1134.02	408.281
1136.91	295.785
1139.8	103.344
1142.7	1.00391
1145.59	287.551
1148.48	274.691
1151.38	208.894
1154.27	189.812
1157.16	114.59
1160.05	188.797
1162.94	102.312
1165.84	46.125
1168.73	30.8711
1171.62	241.527
1174.52	277.137
1177.41	254.574
1180.3	201.82
1183.19	143.754
1186.09	343.41
1188.98	429.148
1191.87	445.848
1194.77	4.55078
