Measurement: Raman, 780 nm, unoriented, Raman Data Processed
Mineral: Jarlite
Rruff sample: R050667
Ideal chemistry: Na_2_(Sr,Na)_14_(Mg,[box])_2_Al_12_F_64_(OH)_4__
Locality: Ivigtut, Greenland
Source: University of Arizona Mineral Museum
Description: Colorless elongated prisms
Measured chemistry: lighter phase: (Na_0.65_K_0.35_)_Σ=1_(Sr_5.92_Na_0.72_Ca_0.18_Li_0.10_Ba_0.08_)_Σ=7_(Mg_0.50_[box]_0.50_)_Σ=1_Al_6.00_F_32.00_((OH)_1.18_(H2O)_0.82_)_Σ=2_; Li not measured but estimated by charge balance
Raman shift (cm-1)	intensity
105.06	0
108.435	204.385
111.81	22.3667
115.184	119.819
118.559	201.42
121.934	197.846
125.309	383.379
128.684	192.556
132.059	105.905
135.433	11.9023
138.808	8.64062
142.183	10.7798
145.558	2.854
148.933	30.791
152.307	66.2974
155.682	132.627
159.057	98.7642
162.432	87.2588
165.807	45.0796
169.181	104.85
172.556	76.2456
175.931	45.7188
179.306	72.6167
182.681	30.3452
186.055	48.021
189.43	29.1123
192.805	50.7871
196.18	116.545
199.555	191.931
202.93	309.445
206.304	260.438
209.679	266.687
213.054	390.375
216.429	329.479
219.804	395.898
223.179	299.711
226.553	426.31
229.928	335.993
233.303	256.335
236.678	179.661
240.053	241.329
243.427	179.228
246.802	225.113
250.177	6.625
253.552	54.5933
256.927	37.4438
260.301	41.7632
263.676	67.4898
267.051	169.043
270.426	131.287
273.801	126.622
277.176	140.797
280.55	85.5552
283.925	118.469
287.3	74.5308
290.675	36.3682
294.05	63.7188
297.425	182.293
300.799	417.92
304.174	500.262
307.549	492.004
310.924	564.062
314.299	628.784
317.673	581.58
321.048	487.067
324.423	321.265
327.798	163.47
331.173	114.718
334.548	79.0317
337.922	12.8652
341.297	12.6055
344.672	79.3003
348.047	80.6143
351.421	96.9946
354.796	200.948
358.171	132.02
361.546	49.9238
364.921	16.8994
368.296	26.4912
371.67	23.0635
375.045	36.4238
378.42	150.036
381.795	261.151
385.17	310.11
388.545	402.427
391.919	339.952
395.294	225.877
398.669	135.327
402.044	57.6831
405.419	5.979
408.793	78.582
412.168	25.7436
415.543	162.036
418.918	130.583
422.293	201.254
425.668	229.925
429.042	173.883
432.417	151.246
435.792	148.394
439.167	108.964
442.542	106.843
445.916	82.6646
449.291	133.841
452.666	124.59
456.041	142.102
459.416	112.813
462.791	90.519
466.165	7.65674
469.54	36.3706
472.915	26.8872
476.29	0.342285
479.665	15.377
483.039	30.2336
486.414	47.6589
489.789	80.0557
493.164	138.338
496.539	111.476
499.913	226.95
503.288	425.071
506.663	612.811
510.038	854.945
513.413	1149.62
516.788	1572.64
520.162	1853.09
523.537	2020.52
526.912	1932.72
530.287	1599.81
533.662	1216.79
537.036	986.191
540.411	828.877
543.786	657.941
547.161	511.762
550.536	383.94
553.91	271.344
557.285	239.009
560.66	128.236
564.035	112.994
567.41	73.481
570.785	31.8608
574.159	13.7371
577.534	39.9941
580.909	52.1145
584.284	58.9126
587.659	41.5757
591.034	122.222
594.408	206.442
597.783	203.53
601.158	321.842
604.533	328.131
607.908	313.847
611.282	295.116
614.657	272.49
618.032	294.349
621.407	259.908
624.782	187.517
628.157	157.142
631.531	110.064
634.906	139.699
638.281	91.5584
641.656	71.5972
645.031	13.4231
648.405	52.3547
651.78	7.91284
655.155	9.62231
658.53	23.1738
661.905	7.88281
665.279	7.54248
668.654	32.0923
672.029	29.0959
675.404	20.8206
678.779	27.189
682.154	26.7693
685.528	43.3794
688.903	82.2214
692.278	51.188
695.653	66.5496
699.028	45.8408
702.403	39.0872
705.777	52.3835
709.152	43.4719
712.527	51.6912
715.902	68.6243
719.277	35.2339
722.651	17.8367
726.026	41.5742
729.401	55.9512
732.776	54.3098
736.151	47.2539
739.525	39.9204
742.9	5.69971
746.275	44.4026
749.65	83.9902
753.025	21.2134
756.399	55.0911
759.774	64.4973
763.149	49.9822
766.524	27.146
769.899	9.47803
773.274	33.8005
776.648	64.3945
780.023	38.7578
783.398	59.3081
786.773	32.7732
790.148	51.8596
793.523	43.1484
796.897	37.2366
800.272	28.1011
803.647	10.2527
807.022	72.0671
810.397	65.0405
813.771	44.6638
817.146	28.8818
820.521	32.9988
823.896	56.8074
827.271	34.9961
830.645	1.10278
834.02	122.711
837.395	56.2007
840.77	74.0188
844.145	66.1313
847.519	64.0134
850.894	47.6335
854.269	70.0317
857.644	47.9741
861.019	60.4385
864.394	1.71387
867.768	68.1809
871.143	60.8721
874.518	23.1814
877.893	36.8716
881.268	50.7705
884.643	37.8025
888.017	63.6792
891.392	3.08911
894.767	9.35205
898.142	88.5503
901.517	9.8313
904.891	32.2207
908.266	23.4531
911.641	12.4915
915.016	11.2112
918.391	15.3743
921.765	38.3452
925.14	37.217
928.515	17.397
931.89	21.5605
935.265	37.613
938.64	75.2471
942.014	9.75684
945.389	24.75
948.764	8.24146
952.139	20.575
955.514	13.219
958.889	29.4998
962.263	84.3003
965.638	79.313
969.013	11.4075
972.388	57.4102
975.763	43.168
979.137	40.4375
982.512	82.0725
985.887	163.137
989.262	154.615
992.637	138.54
996.011	60.656
999.386	62.7654
1002.76	85.9592
1006.14	46.5991
1009.51	39.3648
1012.89	2.34204
1016.26	53.5342
1019.63	30.9636
1023.01	43.9106
1026.38	30.0327
1029.76	68.229
1033.13	51.4458
1036.51	10.2322
1039.88	51.356
1043.26	95.1973
1046.63	70.1269
1050.01	43.2022
1053.38	85.2075
1056.76	39.0454
1060.13	11.9707
1063.51	38.9436
1066.88	10.1858
1070.26	41.6741
1073.63	14.3467
1077.01	20.7124
1080.38	48.1074
1083.76	21.5679
1087.13	0.236084
1090.51	46.564
1093.88	74.3958
1097.26	26.1946
1100.63	7.76367
1104.01	10.5491
1107.38	17.1177
1110.76	30.1792
1114.13	35.7329
1117.51	3.99731
1120.88	34.1626
1124.26	60.7835
1127.63	67.5779
1131	85.9526
1134.38	107.786
1137.75	130.716
1141.13	211.238
1144.5	205.912
1147.88	216.774
1151.25	272.359
1154.63	211.528
1158	223.273
1161.38	254.074
1164.75	203.836
1168.13	194.29
1171.5	181.95
1174.88	171.833
1178.25	171.044
1181.63	138.86
1185	148.891
1188.38	122.045
1191.75	118.735
1195.13	95.7428
1198.5	120.779
1201.88	105.785
1205.25	94.5412
1208.62	63.676
1212	85.4009
1215.38	70.4231
1218.75	56.3869
1222.12	75.1651
1225.5	62.6585
1228.87	34.9825
1232.25	7.55188
1235.62	15.3866
1239	39.4807
1242.37	7.05737
1245.75	47.9331
1249.12	81.3795
1252.5	102.006
1255.87	101.372
1259.25	125.364
1262.62	149.55
1266	151.181
1269.37	252.554
1272.75	237.496
1276.12	278.127
1279.5	252.48
1282.87	146.409
1286.25	1.32568
