Measurement: Raman, 532 nm, unoriented, Raman Data Processed
Mineral: Jarlite
Rruff sample: R050667
Ideal chemistry: Na_2_(Sr,Na)_14_(Mg,[box])_2_Al_12_F_64_(OH)_4__
Locality: Ivigtut, Greenland
Source: University of Arizona Mineral Museum
Description: Colorless elongated prisms
Measured chemistry: lighter phase: (Na_0.65_K_0.35_)_Σ=1_(Sr_5.92_Na_0.72_Ca_0.18_Li_0.10_Ba_0.08_)_Σ=7_(Mg_0.50_[box]_0.50_)_Σ=1_Al_6.00_F_32.00_((OH)_1.18_(H2O)_0.82_)_Σ=2_; Li not measured but estimated by charge balance
Raman shift (cm-1)	intensity
120.609	0
123.984	159.244
127.359	66.3279
130.734	110.558
134.109	21.1925
137.483	47.7919
140.858	72.9407
144.233	63.8524
147.608	73.272
150.983	90.6887
154.358	137.517
157.732	101.805
161.107	162.914
164.482	121.144
167.857	182.251
171.232	70.8428
174.607	19.5429
177.981	3.61755
181.356	1.24622
184.731	34.6721
188.106	157.016
191.481	125.67
194.855	190.942
198.23	272.212
201.605	273.463
204.98	250.901
208.355	231.669
211.729	284.187
215.104	285.928
218.479	409.832
221.854	412.374
225.229	447.117
228.603	402.242
231.978	353.777
235.353	363.414
238.728	254.743
242.103	206.677
245.478	169.707
248.852	176.019
252.227	90.6996
255.602	8.89966
258.977	27.9474
262.352	6.76758
265.726	22.7544
269.101	1.85828
272.476	1.48706
275.851	70.3624
279.226	2.30286
282.601	65.2333
285.975	105.614
289.35	172.75
292.725	288.691
296.1	460.336
299.475	585.522
302.849	619.667
306.224	515.66
309.599	367.05
312.974	387.359
316.349	282.693
319.724	227.673
323.098	91.1776
326.473	61.8192
329.848	23.5654
333.223	17.0929
336.598	7.89233
339.972	12.0877
343.347	34.5454
346.722	159.196
350.097	199.587
353.472	380.192
356.846	223.072
360.221	73.1599
363.596	75.3213
366.971	63.4049
370.346	114.437
373.721	178.794
377.095	425.889
380.47	518.293
383.845	643.907
387.22	672.029
390.595	663.586
393.969	512.518
397.344	376.625
400.719	289.099
404.094	191.053
407.469	159.738
410.844	191.83
414.218	240.403
417.593	264.478
420.968	330.493
424.343	354.858
427.718	319.987
431.092	288.32
434.467	241.781
437.842	219.403
441.217	172.675
444.592	164.797
447.967	122.973
451.341	111.895
454.716	128.263
458.091	100.402
461.466	46.7293
464.841	7.82996
468.215	26.5656
471.59	29.4147
474.965	13.4819
478.34	50.9465
481.715	10.5156
485.089	37.0759
488.464	0.143921
491.839	35.8586
495.214	133.405
498.589	157.542
501.964	344.346
505.338	486.798
508.713	649.436
512.088	949.887
515.463	1311.88
518.838	1607.06
522.212	1716.12
525.587	1707.19
528.962	1474.75
532.337	1156.81
535.712	961.061
539.087	780.224
542.461	632.529
545.836	537.122
549.211	423.568
552.586	382.227
555.961	321.411
559.335	265.889
562.71	220.621
566.085	131.197
569.46	63.1412
572.835	73.7806
576.21	87.9487
579.584	46.4515
582.959	98.4757
586.334	104.448
589.709	151.372
593.084	221.347
596.458	305.631
599.833	283.868
603.208	355.696
606.583	368.436
609.958	366.628
613.332	317.559
616.707	267.031
620.082	243.548
623.457	231.129
626.832	204.92
630.207	155.666
633.581	191.312
636.956	134.607
640.331	123.651
643.706	8.69238
647.081	31.2869
650.456	18.3391
653.83	6.70276
657.205	0.390869
660.58	20.8906
663.955	0.342773
667.33	24.1476
670.704	54.0989
674.079	14.509
677.454	39.0582
680.829	19.2798
684.204	71.6255
687.578	81.3627
690.953	55.7933
694.328	61.1371
697.703	53.4059
701.078	78.7789
704.452	114.117
707.827	51.1373
711.202	42.9233
714.577	72.7023
717.952	19.7444
721.327	17.0219
724.701	4.94128
728.076	11.4669
731.451	4.27197
734.826	47.912
738.201	21.6511
741.576	27.9768
744.95	23.4343
748.325	21.6092
751.7	28.7037
755.075	12.9658
758.45	50.428
761.824	31.8657
765.199	39.8217
768.574	13.6648
771.949	36.7278
775.324	32.5619
778.698	36.0348
782.073	57.4323
785.448	76.4907
788.823	11.7094
792.198	29.5024
795.573	9.11646
798.947	26.0444
802.322	26.3536
805.697	16.968
809.072	59.921
812.447	27.3483
815.822	27.5503
819.196	35.5688
822.571	49.2443
825.946	33.5648
829.321	15.1194
832.696	47.6891
836.07	38.6909
839.445	43.6346
842.82	31.9533
846.195	39.8319
849.57	39.2998
852.944	2.58923
856.319	39.5671
859.694	52.7731
863.069	30.2113
866.444	9.95825
869.818	55.6425
873.193	31.5364
876.568	32.0971
879.943	29.0771
883.318	23.4189
886.693	37.8673
890.067	39.8137
893.442	26.6876
896.817	9.16907
900.192	16.7347
903.567	33.6435
906.942	49.3567
910.316	19.6649
913.691	20.3568
917.066	29.9053
920.441	38.7263
923.816	19.9175
927.19	8.10181
930.565	39.9009
933.94	72.8546
937.315	3.46118
940.69	26.5237
944.064	45.4001
947.439	81.3153
950.814	33.3347
954.189	37.8624
957.564	26.545
960.938	6.63415
964.313	18.1551
967.688	10.6707
971.063	22.0134
974.438	82.0456
977.813	66.7159
981.187	74.2858
984.562	127.016
987.937	153.31
991.312	140.59
994.687	102.291
998.062	88.4767
1001.44	58.4659
1004.81	25.1268
1008.19	42.8389
1011.56	30.4156
1014.94	50.0309
1018.31	25.684
1021.68	59.7484
1025.06	22.6886
1028.43	54.9169
1031.81	19.6954
1035.18	22.568
1038.56	37.4794
1041.93	7.03821
1045.31	22.3392
1048.68	31.5339
1052.06	30.5045
1055.43	10.8604
1058.81	0.978516
1062.18	47.7883
1065.56	8.88501
1068.93	11.525
1072.31	49.3177
1075.68	54.9832
1079.06	44.428
1082.43	31.8193
1085.81	27.4125
1089.18	46.1624
1092.56	53.4824
1095.93	67.0051
1099.31	84.5717
1102.68	30.61
1106.06	21.7833
1109.43	33.0928
1112.81	31.7837
1116.18	39.6486
1119.56	40.7192
1122.93	20.227
1126.3	30.3894
1129.68	18.8784
1133.05	76.3516
1136.43	46.6974
1139.8	36.39
1143.18	24.4199
1146.55	18.275
1149.93	53.6138
1153.3	61.6388
1156.68	42.9117
1160.05	56.9795
1163.43	43.5155
1166.8	34.08
1170.18	32.8868
1173.55	35.5316
1176.93	30.8776
1180.3	16.9727
1183.68	33.1671
1187.05	40.4832
1190.43	29.3667
1193.8	41.9606
1197.18	57.8923
1200.55	23.4042
1203.92	57.7482
1207.3	38.1344
1210.67	65.4288
1214.05	28
1217.42	53.79
1220.8	23.0247
1224.17	40.5527
1227.55	35.3596
1230.92	82.7502
1234.3	56.2
1237.67	49.6643
1241.05	54.9902
1244.42	57.4556
1247.8	36.4514
1251.17	46.6992
1254.55	29.9109
1257.92	49.5566
1261.3	73.3452
1264.67	1.64282
1268.05	32.4861
1271.42	22.0142
1274.8	25.1023
1278.17	17.1941
1281.55	48.1216
1284.92	20.0207
1288.3	11.3906
1291.67	57.1719
1295.05	18.9168
1298.42	15.5242
1301.8	0
