Measurement: Raman, 780 nm, unoriented, Raman Data Processed
Mineral: Jensenite
Rruff sample: R080008
Ideal chemistry: Cu^2+^_3_Te^6+^O_6_2H_2_O
Locality: Montezuma mine, Sonora, Mexico
Source: William W. Pinch
Description: Bright green equant crystals found on the holotype specimen of cesbronite, R080003
Raman shift (cm-1)	intensity
142.722	0
145.614	0.090515
148.507	0.265923
151.4	0.566969
154.292	0.158947
157.185	0.375996
160.078	0.58901
162.971	0.676359
165.863	0.570332
168.756	0.860096
171.649	0.344276
174.541	0.885382
177.434	0.502031
180.327	0.345768
183.22	0.040281
186.112	0.515762
189.005	0.683449
191.898	0.08349
194.79	0.159227
197.683	0.823214
200.576	0.043171
203.468	0.304142
206.361	0.288294
209.254	0.379541
212.147	0.694092
215.039	0.492775
217.932	0.371355
220.825	0.66074
223.717	0.876675
226.61	0.681278
229.503	0.421093
232.395	0.334213
235.288	0.375265
238.181	0.367699
241.073	0.254213
243.966	0.397964
246.859	0.704329
249.752	0.431017
252.644	0.23303
255.537	0.017456
258.43	0.098988
261.322	0.433588
264.215	0.519617
267.108	0.613688
270	1.04672
272.893	1.05011
275.786	1.16501
278.679	1.21353
281.571	1.3223
284.464	1.53191
287.357	1.25472
290.249	1.5278
293.142	1.61275
296.035	1.87621
298.928	1.28606
301.82	1.90342
304.713	1.71076
307.606	1.42828
310.498	1.35406
313.391	1.68903
316.284	1.48457
319.176	1.53884
322.069	1.63852
324.962	0.681604
327.854	0.753119
330.747	0.880356
333.64	0.377098
336.533	0.030493
339.425	0.098072
342.318	0.142851
345.211	0.200434
348.103	0.210342
350.996	0.110483
353.889	0.265541
356.781	0.142841
359.674	0.339708
362.567	0.482534
365.46	0.171618
368.352	0.330931
371.245	0.145657
374.138	0.49601
377.03	0.459824
379.923	0.788326
382.816	0.891296
385.709	0.758823
388.601	1.08844
391.494	0.8409
394.387	0.569223
397.279	1.10543
400.172	0.782574
403.065	0.856577
405.957	0.342522
408.85	0.803747
411.743	0.323248
414.635	0.406813
417.528	0.559017
420.421	0.813845
423.314	0.558901
426.206	0.440472
429.099	0.270107
431.992	0.298487
434.884	0.716492
437.777	0.490593
440.67	0.369783
443.562	0.365028
446.455	0.854986
449.348	0.802652
452.241	0.185488
455.133	0.691313
458.026	0.682957
460.919	0.662813
463.811	0.294346
466.704	0.416113
469.597	0.512041
472.49	0.341877
475.382	0.409887
478.275	0.42869
481.168	0.501423
484.06	0.159369
486.953	0.086761
489.846	0.414015
492.738	0.379204
495.631	0.09556
498.524	0.374527
501.416	0.695099
504.309	0.535513
507.202	0.25819
510.095	0.792547
512.987	0.873604
515.88	0.466784
518.773	0.59231
521.665	0.211107
524.558	0.709154
527.451	0.203218
530.343	0.584091
533.236	0.377331
536.129	0.193939
539.022	0.683258
541.914	0.477003
544.807	0.264563
547.7	0.323118
550.592	0.497263
553.485	0.060099
556.378	0.481436
559.27	0.103207
562.163	0.318329
565.056	0.115652
567.949	0.386494
570.841	0.315054
573.734	0.749771
576.627	0.089499
579.519	0.332321
582.412	0.448366
585.305	0.930992
588.197	0.460075
591.09	0.700907
593.983	0.68676
596.875	1.25174
599.768	1.06486
602.661	1.25283
605.554	1.47401
608.446	1.95226
611.339	1.23478
614.232	0.822287
617.125	1.25649
620.017	0.913734
622.91	0.708094
625.803	0.282484
628.695	0.334368
631.588	0.361923
634.481	0.297016
637.373	0.165413
640.266	0.270378
643.159	0.023756
646.052	0.46876
648.944	0.389503
651.837	0.627926
654.73	0.674171
657.622	0.920376
660.515	1.09702
663.408	0.857187
666.3	1.19396
669.193	0.565042
672.086	1.21985
674.979	1.10947
677.871	0.747061
680.764	0.750078
683.657	0.393944
686.549	1.00863
689.442	1.24269
692.335	0.862253
695.227	1.51619
698.12	1.68218
701.013	2.32672
703.905	1.57795
706.798	1.97569
709.691	1.929
712.584	1.67998
715.476	1.62295
718.369	0.904814
721.262	1.04409
724.154	0.661026
727.047	0.398119
729.94	0.176341
732.832	0.124648
735.725	0.35857
738.618	0.297986
741.511	0.107327
744.403	0.045591
747.296	0.081339
750.189	0.043221
753.081	0.016264
755.974	0.338674
758.867	0.181475
761.76	0.171796
764.652	0.27939
767.545	0.130803
770.438	0.460737
773.33	0.559177
776.223	0.082638
779.116	0.362018
782.008	0.140965
784.901	0.353019
787.794	0.316116
790.687	0.438394
793.579	0.153563
796.472	0.504869
799.365	0.607037
802.257	0.50455
805.15	0.152922
808.043	0.478731
810.935	0.571089
813.828	0.101456
816.721	0.548706
819.614	0.154718
822.506	0.224996
825.399	0.842798
828.292	0.386686
831.184	0.294258
834.077	0.672243
836.97	0.533015
839.862	0.349304
842.755	0.657745
845.648	0.328277
848.54	0.206023
851.433	0.567141
854.326	0.026692
857.219	0.575476
860.111	0.07909
863.004	0.323662
865.897	0.233201
868.789	0.424575
871.682	0.222136
874.575	0.380319
877.467	0.536637
880.36	0.271896
883.253	0.298847
886.146	0.052828
889.038	0.20689
891.931	0.511285
894.824	0.32235
897.716	0.115643
900.609	0.141522
903.502	0.113072
906.394	0.159553
909.287	0.240721
912.18	0.194851
915.073	0.205441
917.965	0.146105
920.858	0.248912
923.751	0.235019
926.643	0.104601
929.536	0.152952
932.429	0.327598
935.321	0.170651
938.214	0.033921
941.107	0.435885
944	0.273769
946.892	0.219277
949.785	0.081678
952.678	0.158916
955.57	0.121135
958.463	0.074363
961.356	0.373797
964.248	0.453417
967.141	0.393691
970.034	0.566475
972.927	0.447072
975.819	0.732698
978.712	0.262948
981.605	0.108747
984.497	0.37678
987.39	0.306083
990.283	0.275446
993.175	0.474107
996.068	0.396765
998.961	0.365158
1001.85	0.343951
1004.75	0.373801
1007.64	0.142429
1010.53	0.099098
1013.42	0.184888
1016.32	0.238245
1019.21	0.493806
1022.1	0.021261
1024.99	0.535325
1027.89	0.371576
1030.78	0.137486
1033.67	0.579076
1036.57	0.380721
1039.46	0.375526
1042.35	0.407756
1045.24	0.043129
1048.14	0.102265
1051.03	0.316645
1053.92	0.664239
1056.82	0.249966
1059.71	0.182868
1062.6	0.564622
1065.49	0.176395
1068.39	0.03036
1071.28	0.536222
1074.17	0.420469
1077.06	0.608688
1079.96	0.622253
1082.85	0.025964
1085.74	0.352257
1088.63	0.483969
1091.53	0.505541
1094.42	0.531981
1097.31	0.192304
1100.2	0.666414
1103.1	0.06611
1105.99	0.217236
1108.88	0.720737
1111.78	0.424048
1114.67	0.279762
1117.56	0.309669
1120.45	0.217863
1123.35	0.396279
1126.24	0.306566
1129.13	0.613333
1132.03	0.393134
1134.92	0.20692
1137.81	0.092133
1140.7	0.673473
1143.6	0.405808
1146.49	0.274206
1149.38	0.427765
1152.27	0.33832
1155.17	0.472665
1158.06	0.403809
1160.95	0.135777
1163.85	0.780145
1166.74	0.5367
1169.63	0.080931
1172.52	0.217956
1175.42	0.194384
1178.31	0.50413
1181.2	0.297885
1184.09	0.331371
1186.99	0.328025
1189.88	0.474803
1192.77	0.20578
1195.66	0.341537
1198.56	0.354713
1201.45	0.282594
1204.34	0.38544
1207.23	0.537102
1210.13	0.079467
1213.02	0.447315
1215.91	0.942217
1218.81	0.160815
1221.7	0.241046
1224.59	0.488542
1227.48	0.03261
1230.38	0.083843
1233.27	0.141587
1236.16	0.785465
1239.06	0.832515
1241.95	0.417817
1244.84	0.559759
1247.73	0.425965
1250.63	0.347619
1253.52	0.191382
1256.41	0.432878
1259.3	0.76801
1262.2	0.889311
1265.09	0.86498
1267.98	0.390803
1270.88	0.407986
1273.77	0.717978
1276.66	0.457215
1279.55	0.040122
1282.44	0.0833
1285.34	0.439407
1288.23	0.011815
