Measurement: Raman, 532 nm, unoriented, Raman Data Processed
Mineral: Jerrygibbsite
Rruff sample: R100042
Ideal chemistry: Mn^2+^_9_(SiO_4_)_4_(OH)_2_
Locality: Kombat mine, Otavi Mountains, Namibia
Source: William W Pinch
Description: Tan transparent cleavages, associated with hausmannite, calcite, and an orange-red granular vesuvianite-group mineral
Raman shift (cm-1)	intensity
173.416	0
176.309	0.095764
179.202	2.23663
182.094	9.96948
184.987	18.022
187.88	14.8472
190.773	24.2517
193.665	16.3501
196.558	16.9003
199.451	17.4486
202.343	19.2247
205.236	22.1819
208.129	20.0519
211.021	17.5841
213.914	17.7831
216.807	16.0609
219.699	16.309
222.592	13.702
225.485	16.4779
228.377	15.2626
231.27	17.3477
234.163	24.4907
237.056	21.499
239.948	11.706
242.841	12.0826
245.734	13.029
248.626	14.9653
251.519	12.5413
254.412	11.7011
257.305	8.43152
260.197	4.31811
263.09	5.80298
265.983	7.40222
268.875	5.55469
271.768	4.46631
274.661	2.50745
277.553	1.28882
280.446	0.452271
283.339	1.36169
286.232	0.280396
289.124	6.25061
292.017	8.4624
294.91	5.64966
297.802	6.0238
300.695	0.239014
303.588	1.90796
306.481	4.18604
309.373	3.47656
312.266	0.056641
315.159	4.72729
318.051	7.51819
320.944	3.60547
323.837	7.60156
326.729	14.4065
329.622	9.50781
332.515	1.05591
335.408	2.34985
338.3	1.79956
341.193	7.47571
344.086	7.05933
346.978	1.07849
349.871	1.55347
352.764	1.37231
355.656	9.10059
358.549	10.4557
361.442	11.0204
364.334	10.7408
367.227	9.45386
370.12	5.27771
373.012	11.2295
375.905	10.4661
378.798	14.4134
381.691	16.528
384.583	21.0748
387.476	25.2883
390.369	26.1771
393.261	20.5343
396.154	17.9489
399.047	20.4485
401.94	23.1322
404.832	18.7946
407.725	18.9662
410.618	18.4778
413.51	16.6288
416.403	15.2883
419.296	11.8752
422.188	9.38843
425.081	5.12817
427.974	1.69434
430.866	4.7876
433.759	5.26941
436.652	8.77258
439.545	6.80615
442.437	9.9176
445.33	0.154175
448.223	1.36658
451.115	1.65247
454.008	1.44336
456.901	2.48877
459.793	0.575806
462.686	9.89795
465.579	7.09912
468.472	6.83972
471.364	0.207886
474.257	3.33508
477.15	0.958862
480.042	2.84631
482.935	9.1969
485.828	5.92798
488.721	5.93494
491.613	7.44421
494.506	3.33191
497.399	6.16614
500.291	9.01807
503.184	9.58813
506.077	10.7567
508.969	4.54089
511.862	10.1992
514.755	10.6993
517.648	8.34277
520.54	10.3352
523.433	4.29114
526.326	6.44885
529.218	2.11194
532.111	1.13586
535.004	3.71899
537.896	6.75513
540.789	7.47461
543.682	1.38367
546.575	1.94739
549.467	8.47937
552.36	9.17432
555.253	11.7025
558.145	8.6272
561.038	13.26
563.931	11.3478
566.823	12.2838
569.716	19.0767
572.609	12.6179
575.502	8.42139
578.394	9.78357
581.287	8.04236
584.18	9.38709
587.072	14.3412
589.965	14.0203
592.858	6.43384
595.75	8.71155
598.643	9.8894
601.536	7.90356
604.428	8.7063
607.321	11.2225
610.214	10.2875
613.107	11.5239
615.999	10.0868
618.892	7.37646
621.785	2.28308
624.677	1.95422
627.57	10.2566
630.463	3.92517
633.356	7.61658
636.248	4.31628
639.141	1.34717
642.034	3.23096
644.926	1.30151
647.819	3.89771
650.712	6.71326
653.604	9.79797
656.497	6.36963
659.39	11.0133
662.283	9.34119
665.175	7.81714
668.068	7.75403
670.961	9.87439
673.853	5.45471
676.746	8.57471
679.639	7.21436
682.531	15.8498
685.424	8.63306
688.317	9.96887
691.21	8.1488
694.102	5.4364
696.995	7.09912
699.888	10.1855
702.78	3.27722
705.673	4.0957
708.566	11.391
711.458	12.8313
714.351	10.3347
717.244	10.432
720.136	4.75915
723.029	7.19214
725.922	5.05176
728.815	8.44678
731.707	1.90833
734.6	9.09839
737.493	3.47168
740.385	5.63501
743.278	3.06934
746.171	5.45056
749.063	7.87146
751.956	3.3042
754.849	0.232788
757.742	1.61023
760.634	0.913208
763.527	0.702881
766.42	0.766968
769.312	0.969116
772.205	1.17517
775.098	6.31641
777.99	4.52966
780.883	7.11499
783.776	4.92273
786.669	9.74438
789.561	19.7799
792.454	34.0968
795.347	55.7251
798.239	82.3989
801.132	127.265
804.025	175.086
806.918	201.836
809.81	200.367
812.703	181.192
815.596	155.985
818.488	131.094
821.381	124.626
824.274	114.974
827.166	111.701
830.059	117.365
832.952	125.83
835.845	142.26
838.737	140.313
841.63	128.909
844.523	114.659
847.415	80.1029
850.308	71.7056
853.201	43.6482
856.093	35.8247
858.986	25.434
861.879	15.8573
864.771	14.1547
867.664	3.20288
870.557	7.05579
873.45	5.88342
876.342	5.65527
879.235	1.34274
882.128	0.134277
885.02	0.927933
887.913	0.783081
890.806	0.14978
893.698	0.787354
896.591	5.65564
899.484	12.4624
902.377	1.01453
905.269	4.25647
908.162	5.08728
911.055	8.09241
913.947	3.82214
916.84	12.1273
919.733	9.71619
922.625	7.83911
925.518	6.75
928.411	8.18103
931.304	18.4961
934.196	18.5438
937.089	10.1699
939.982	14.8441
942.875	0.248047
945.767	5.3938
948.66	3.42883
951.553	10.9336
954.445	3.77356
957.338	6.38867
960.231	9.98816
963.123	2.59705
966.016	3.31067
968.909	5.90088
971.802	2.80383
974.694	4.6709
977.587	11.4675
980.48	14.4779
983.372	15.6797
986.265	9.40588
989.158	17.7142
992.05	16.7469
994.943	2.33069
997.836	4.51733
1000.73	11.4591
1003.62	17.7812
1006.51	11.8298
1009.41	12.8566
1012.3	15.6741
1015.19	10.9541
1018.09	12.5593
1020.98	30.9158
1023.87	11.0444
1026.76	10.0717
1029.66	21.3798
1032.55	10.2437
1035.44	17.3908
1038.33	9.82227
1041.23	3.36707
1044.12	2.73157
1047.01	1.32519
1049.9	13.1837
1052.8	6.77808
1055.69	8.43579
1058.58	8.26794
1061.47	4.75073
1064.37	2.05347
1067.26	1.20728
1070.15	3.86194
1073.05	0.904297
1075.94	2.70093
1078.83	6.33899
1081.72	4.72205
1084.62	5.39771
1087.51	9.06897
1090.4	1.40772
1093.3	14.5897
1096.19	9.30151
1099.08	5.8938
1101.97	2.47461
1104.87	8.5708
1107.76	7.5221
1110.65	6.32361
1113.54	9.49927
1116.44	10.627
1119.33	6.63379
1122.22	7.23474
1125.12	4.71704
1128.01	9.55139
1130.9	4.46545
1133.79	3.85913
1136.68	11.0564
1139.58	13.9185
1142.47	14.145
1145.36	7.53601
1148.26	3.44116
1151.15	6.85962
1154.04	13.6958
1156.93	12.0933
1159.83	10.6627
1162.72	2.28308
1165.61	7.62122
1168.51	9.93774
1171.4	13.1656
1174.29	1.52576
1177.18	1.27295
1180.08	5.8949
1182.97	1.93311
1185.86	3.7218
1188.75	-0.241828
1191.65	0.968628
1194.54	2.08301
1197.43	9.66374
1200.33	5.06067
1203.22	6.67664
1206.11	4.45093
1209	5.81628
1211.9	9.52624
1214.79	1.38977
1217.68	8.58191
1220.57	2.28565
1223.47	4.24036
1226.36	4.07117
1229.25	5.1355
1232.14	9.03528
1235.04	2.93127
1237.93	13.1792
1240.82	5.75073
1243.71	6.11267
1246.61	2.50928
1249.5	11.5544
1252.39	15.2117
1255.29	11.6692
1258.18	8.59058
1261.07	6.72998
1263.96	3.91284
1266.86	7.07324
1269.75	14.6585
1272.64	4.78003
1275.54	10.4985
1278.43	4.85913
1281.32	4.67017
1284.21	2.90015
1287.11	0.729492
1290	3.9541
1292.89	0.648926
1295.78	7.12231
1298.68	14.584
1301.57	6.76733
