Measurement: Raman, 532 nm, unoriented, Raman Data Processed
Mineral: Johnbaumite
Rruff sample: R070753
Ideal chemistry: Ca_5_(As^5+^O_4_)_3_OH
Locality: Sterling Mine, Sterling Hill, Ogdensburg, Franklin Mining District, Sussex County, New Jersey, USA
Source: Michael Scott
Description: Pale brown to gray massive
Raman shift (cm-1)	intensity
150.049	0
152.942	33.7036
155.835	38.2402
158.728	98.2563
161.62	81.4497
164.513	35.9336
167.406	36.7012
170.298	14.4155
173.191	15.7129
176.084	59.8989
178.976	8.71289
181.869	52.1636
184.762	1.43555
187.655	51.147
190.547	105.319
193.44	81.8682
196.333	92.334
199.225	32.8809
202.118	61.2647
205.011	51.1572
207.904	58.3037
210.796	50.2861
213.689	101.54
216.582	12.8335
219.474	16.1162
222.367	44.5874
225.26	107.154
228.152	84.6719
231.045	103.387
233.938	51.9966
236.83	67.3394
239.723	27.8765
242.616	105.762
245.508	35.5464
248.401	116.669
251.294	128.773
254.187	99.8603
257.079	137.569
259.972	133.985
262.865	69.5781
265.757	182.388
268.65	142.24
271.543	143.816
274.435	156.535
277.328	103.747
280.221	92.2666
283.114	97.1436
286.006	171.843
288.899	105.085
291.792	104.445
294.684	84.9629
297.577	9.64551
300.47	53.1338
303.363	46.3467
306.255	49.502
309.148	38.8408
312.041	60.9228
314.933	67.1475
317.826	94.4707
320.719	41.5117
323.611	43.708
326.504	69.915
329.397	92.5918
332.289	137.648
335.182	79.8916
338.075	146.12
340.968	17.8779
343.86	90.3291
346.753	95.5557
349.646	207.274
352.538	263.829
355.431	278.203
358.324	221.859
361.216	254.501
364.109	259.727
367.002	212.696
369.895	174.467
372.787	180.335
375.68	91.2539
378.573	106.553
381.465	96.5791
384.358	121.284
387.251	92.1748
390.144	84.5205
393.036	125.965
395.929	53.6934
398.822	64.4121
401.714	27.3818
404.607	32.6758
407.5	37.4492
410.392	115.519
413.285	80.8438
416.178	170.724
419.07	136.054
421.963	165.183
424.856	67.1514
427.749	2.37402
430.641	109.296
433.534	160.118
436.427	72.3096
439.319	151.138
442.212	183.781
445.105	261.916
447.998	126.607
450.89	12.3594
453.783	181.368
456.676	125.183
459.568	98.5977
462.461	126.036
465.354	145.621
468.246	99.6738
471.139	167.452
474.032	137.728
476.925	96.0606
479.817	41.041
482.71	92.8457
485.603	147.952
488.495	41.3037
491.388	32.3897
494.281	62.5703
497.173	15.0527
500.066	130.192
502.959	68.7744
505.851	25.8438
508.744	110.9
511.637	121.007
514.529	17.3652
517.422	152.546
520.315	134.269
523.208	45.1728
526.1	53.7695
528.993	77.9561
531.886	68.2305
534.778	194.868
537.671	90.5615
540.564	76.3584
543.457	134.172
546.349	83.2022
549.242	166.636
552.135	108.409
555.027	11.3818
557.92	33.8037
560.813	146.159
563.705	108.755
566.598	161.453
569.491	109.181
572.384	244.79
575.276	288.367
578.169	224.282
581.062	149.427
583.954	259.969
586.847	142.062
589.74	101.443
592.632	188.292
595.525	222.039
598.418	197.691
601.311	112.785
604.203	38.2539
607.096	34.4297
609.989	127.125
612.881	64.041
615.774	130.82
618.667	108.539
621.559	109.418
624.452	3.98242
627.345	100.068
630.237	31.6992
633.13	11.7285
636.023	62.8848
638.916	18.207
641.808	151.756
644.701	89.9609
647.594	52.0176
650.486	65.5156
653.379	57.7598
656.272	112.477
659.164	43.7441
662.057	84.9297
664.95	148.988
667.843	258.121
670.735	39.291
673.628	88.0703
676.521	37.1074
679.413	166.057
682.306	267.477
685.199	148.324
688.091	149.568
690.984	95.4609
693.877	68.7852
696.77	13.373
699.662	85.0859
702.555	199.053
705.448	165.922
708.34	141.728
711.233	219.131
714.126	200.244
717.019	152.078
719.911	113.768
722.804	112.254
725.697	98.4375
728.589	176.135
731.482	92.6016
734.375	40.3965
737.267	57.7266
740.16	39.7031
743.053	103.791
745.946	3.62891
748.838	33.3379
751.731	154.344
754.624	5.46094
757.516	103.978
760.409	32.2402
763.302	52.5527
766.194	70.0234
769.087	227.197
771.98	109.17
774.872	116.023
777.765	141.441
780.658	46.2461
783.551	63.2422
786.443	120.51
789.336	31.8711
792.229	23.1074
795.121	20.1797
798.014	128.25
800.907	171.228
803.799	118.205
806.692	139.397
809.585	216.141
812.478	217.787
815.37	319.891
818.263	262.613
821.156	385.174
824.048	597.451
826.941	924.619
829.834	961.859
832.726	726.35
835.619	815.635
838.512	763.152
841.404	766.57
844.297	918.994
847.19	988.269
850.083	938.285
852.975	927.443
855.868	1035.59
858.761	1046.34
861.653	1043.69
864.546	790.18
867.439	655.682
870.332	338.246
873.224	214.231
876.117	182.176
879.01	228.879
881.902	205.707
884.795	241.832
887.688	167.533
890.58	29.9727
893.473	77.4961
896.366	109.994
899.259	58.4102
902.151	64.3164
905.044	30.9258
907.937	128.572
910.829	125.139
913.722	58.1797
916.615	39.2695
919.507	167.281
922.4	203.873
925.293	116.275
928.186	147.266
931.078	68.6582
933.971	101.731
936.864	223.336
939.756	243.797
942.649	277.707
945.542	405.08
948.434	520.562
951.327	656.232
954.22	797.805
957.112	670.711
960.005	393.045
962.898	253.082
965.791	200.207
968.683	256.522
971.576	241.678
974.469	99.084
977.361	7.71484
980.254	73.2481
983.147	51.8457
986.039	211.08
988.932	11.7266
991.825	63.1289
994.718	15.0645
997.61	44.9297
1000.5	295.174
1003.4	150.381
1006.29	214.045
1009.18	102.625
1012.07	128.955
1014.97	217.889
1017.86	186.336
1020.75	215.596
1023.64	140.428
1026.54	112.387
1029.43	125.856
1032.32	287.106
1035.21	170.297
1038.11	137.406
1041	182.227
1043.89	86.0664
1046.79	30.5703
1049.68	150.309
1052.57	19.1641
1055.46	76.9102
1058.36	120.363
1061.25	13.2266
1064.14	146.297
1067.04	212.719
1069.93	101.144
1072.82	30.5391
1075.71	158.191
1078.61	102.84
1081.5	115.5
1084.39	165.992
1087.28	54.4609
1090.18	72.4023
1093.07	72.25
1095.96	161.449
1098.86	67.3789
1101.75	161.742
1104.64	153.023
1107.53	203.203
1110.43	246.93
1113.32	261.637
1116.21	287.996
1119.1	292.461
1122	118.027
1124.89	237.523
1127.78	236.062
1130.67	227.414
1133.57	408.777
1136.46	369.617
1139.35	301.227
1142.24	106.914
1145.14	109.75
1148.03	233.711
1150.92	158.359
1153.82	252.32
1156.71	187.312
1159.6	223.152
1162.49	89.5352
1165.39	43.9961
1168.28	27.5938
1171.17	62.3203
1174.07	92.4102
1176.96	23.043
1179.85	83.9844
1182.74	185.871
1185.64	186.734
1188.53	309.496
1191.42	280.547
1194.31	253.477
1197.21	240.359
1200.1	186.367
1202.99	117.055
1205.88	162.062
1208.78	1.78516
1211.67	211.141
1214.56	150.406
1217.45	165.543
1220.35	175.152
1223.24	35.0547
1226.13	215.894
1229.03	70.4688
1231.92	116.637
1234.81	129.352
1237.7	144.352
1240.6	261.336
1243.49	256.273
1246.38	116.531
1249.28	123.289
1252.17	255.438
1255.06	120.961
1257.95	93.5039
1260.85	121.633
