Measurement: Raman, 780 nm, unoriented, Raman Data Processed
Mineral: Johnbaumite
Rruff sample: R070753
Ideal chemistry: Ca_5_(As^5+^O_4_)_3_OH
Locality: Sterling Mine, Sterling Hill, Ogdensburg, Franklin Mining District, Sussex County, New Jersey, USA
Source: Michael Scott
Description: Pale brown to gray massive
Raman shift (cm-1)	intensity
137.137	0
140.029	51.75
142.922	22.7688
145.815	41.5017
148.707	69.9753
151.6	74.3875
154.493	71.5906
157.385	70.2424
160.278	52.9822
163.171	41.9815
166.064	92.7647
168.956	82.5403
171.849	101.929
174.742	79.7405
177.634	84.0669
180.527	67.2104
183.42	63.5691
186.312	113.579
189.205	123.663
192.098	131.963
194.99	145.027
197.883	155.389
200.776	211.142
203.669	261.517
206.561	250.667
209.454	293.16
212.347	283.034
215.239	289.648
218.132	256.748
221.025	231.29
223.917	206.537
226.81	183.38
229.703	154.946
232.596	92.6624
235.488	51.8481
238.381	76.8989
241.274	68.4346
244.166	131.1
247.059	128.507
249.952	81.2061
252.845	106.149
255.737	73.4873
258.63	18.6519
261.523	11.8921
264.415	46.6323
267.308	15.0679
270.201	1.7085
273.093	27.999
275.986	20.0884
278.879	4.43604
281.772	98.4307
284.664	96.7451
287.557	292.251
290.45	240.926
293.342	335.084
296.235	578.633
299.128	558.469
302.02	634.723
304.913	630.18
307.806	849.379
310.699	855.968
313.591	1086.43
316.484	1172.19
319.377	1522.24
322.269	1789.37
325.162	1988.76
328.055	2204.58
330.947	2288.82
333.84	2315.38
336.733	2329.51
339.625	2159.42
342.518	1995.15
345.411	1922.57
348.304	1914.3
351.196	1840.12
354.089	1833.37
356.982	1821.34
359.874	1658.47
362.767	1481.95
365.66	1187.35
368.553	963.98
371.445	758.749
374.338	672.088
377.231	419.673
380.123	325.446
383.016	146.168
385.909	141.977
388.801	2.1084
391.694	8.43848
394.587	5.3667
397.479	40.6592
400.372	35.6709
403.265	125.629
406.158	255.018
409.05	458.416
411.943	557.215
414.836	732.761
417.728	740.839
420.621	827.264
423.514	902.048
426.406	873.005
429.299	933.088
432.192	967.12
435.085	961.845
437.977	925.838
440.87	1018.56
443.763	992.11
446.655	989.885
449.548	966.523
452.441	987.574
455.334	992.327
458.226	927.472
461.119	901.463
464.012	854.302
466.904	916.549
469.797	837.351
472.69	832.767
475.582	723.308
478.475	593.739
481.368	537.906
484.26	514.943
487.153	366.103
490.046	314.372
492.939	221.205
495.831	249.672
498.724	168.477
501.617	92.5205
504.509	101.566
507.402	44.3442
510.295	37.0493
513.188	34.5127
516.08	23.9023
518.973	31.6777
521.866	17.8779
524.758	7.65771
527.651	34.5767
530.544	23.0239
533.436	28.5483
536.329	0.527344
539.222	4.13867
542.115	35.856
545.007	45.7002
547.9	25.6733
550.793	173.608
553.685	82.9707
556.578	38.8765
559.471	115.222
562.363	102.876
565.256	186.452
568.149	264.014
571.042	328.508
573.934	373.022
576.827	382.802
579.72	366.326
582.612	238.244
585.505	233.144
588.398	191.34
591.29	173.393
594.183	239.196
597.076	217.117
599.968	129.337
602.861	200.743
605.754	175.294
608.647	178.906
611.539	173.091
614.432	132.158
617.325	101.011
620.217	65.0603
623.11	85.8096
626.003	90.9651
628.895	106.584
631.788	87.3564
634.681	56.5046
637.574	135.462
640.466	157.385
643.359	74.8059
646.252	115.002
649.144	102.671
652.037	144.446
654.93	159.41
657.822	76.0657
660.715	94.9392
663.608	131.906
666.501	67.1438
669.393	94.2053
672.286	105.255
675.179	68.1765
678.071	67.1936
680.964	67.1863
683.857	72.292
686.75	138.051
689.642	58.512
692.535	51.9841
695.428	28.0137
698.32	6.48779
701.213	6.59253
704.106	46.386
706.998	17.6191
709.891	28.5198
712.784	35.1956
715.677	13.7251
718.569	4.40869
721.462	40.6367
724.355	13.2385
727.247	25.5295
730.14	59.386
733.033	27.8081
735.925	20.4241
738.818	72.1497
741.711	22.4172
744.604	51.824
747.496	104.33
750.389	43.2573
753.282	96.5413
756.174	79.3154
759.067	101.614
761.96	135.69
764.852	80.1826
767.745	100.388
770.638	51.8887
773.53	84.7681
776.423	127.142
779.316	89.9341
782.209	79.9822
785.101	57.669
787.994	22.2227
790.887	4.74439
793.779	9.28271
796.672	5.22339
799.565	12.4939
802.457	51.1553
805.35	59.8625
808.243	191.481
811.136	236.971
814.028	402.1
816.921	725.8
819.814	1041.58
822.706	1706.83
825.599	2490.18
828.492	3068.47
831.385	3210.96
834.277	3068.95
837.17	2928.74
840.063	2845.54
842.955	2899.56
845.848	3000.26
848.741	3133.79
851.633	3183.03
854.526	3207.24
857.419	3214.15
860.312	3037.18
863.204	2814.05
866.097	2279.15
868.99	1673.59
871.882	1212.87
874.775	836.903
877.668	560.24
880.56	420.998
883.453	272.031
886.346	266.69
889.239	186.3
892.131	162.855
895.024	131.443
897.917	104.498
900.809	62.9665
903.702	61.3171
906.595	33.7122
909.487	23.1626
912.38	28.384
915.273	18.0813
918.165	17.9094
921.058	33.7756
923.951	27.6243
926.844	19.7319
929.736	17.3294
932.629	46.5132
935.522	126.802
938.414	111.204
941.307	239.308
944.2	470.668
947.092	936.67
949.985	1492.09
952.878	2000.74
955.771	1930.55
958.663	1431.86
961.556	868.16
964.449	436.965
967.341	225.018
970.234	97.7866
973.127	35.967
976.019	43.3586
978.912	1.94043
981.805	24.9287
984.698	6.66553
987.59	16.7285
990.483	5.021
993.376	18.7634
996.268	89.8162
999.161	78.0056
1002.05	146.639
1004.95	147.887
1007.84	119.955
1010.73	98.5029
1013.62	91.447
1016.52	85.0007
1019.41	138.331
1022.3	137.221
1025.19	187.767
1028.09	146.174
1030.98	133.206
1033.87	171.948
1036.77	166.938
1039.66	146.805
1042.55	140.374
1045.44	166.943
1048.34	135.086
1051.23	124.867
1054.12	130.616
1057.02	143.356
1059.91	122.635
1062.8	130.067
1065.69	171.941
1068.59	178.526
1071.48	177.454
1074.37	198.914
1077.26	157.782
1080.16	140.335
1083.05	119.719
1085.94	108.343
1088.84	108.358
1091.73	105.564
1094.62	93.1135
1097.51	86.3958
1100.41	79.6333
1103.3	77.8875
1106.19	31.4346
1109.08	62.4382
1111.98	12.3386
1114.87	23.5737
1117.76	4.99585
1120.65	14.9431
1123.55	37.6616
1126.44	15.3227
1129.33	15.7915
1132.22	36.8013
1135.12	106.908
1138.01	162.138
1140.9	201.814
1143.8	197.818
1146.69	220.631
1149.58	173.864
1152.47	184.616
1155.37	161.651
1158.26	147.797
1161.15	85.2412
1164.05	123.765
1166.94	8.34668
1169.83	80.0132
1172.72	38.9912
1175.62	97.3838
1178.51	27.0244
1181.4	30.2534
