Measurement: Raman, 785 nm, unoriented, Raman Data Processed
Mineral: Jordisite
Rruff sample: R060864
Ideal chemistry: Mo^4+^S^2-^_2_
Locality: Bleiberg, Karnten, Osterreich, Austria
Source: Michael Scott
Description: Associated with dark blue massive ilsemannite
Raman shift (cm-1)	intensity
183.72	0
186.613	24.123
189.506	62.3359
192.399	12.4673
195.291	119.513
198.184	227.283
201.077	203.286
203.969	324.915
206.862	331.918
209.755	295.93
212.648	403.885
215.54	399.01
218.433	485.207
221.326	544.126
224.218	609.513
227.111	573.326
230.004	607.361
232.896	695.102
235.789	668.136
238.682	769.118
241.575	766.884
244.467	751.774
247.36	688.361
250.253	695.189
253.145	647.285
256.038	580.227
258.931	574.532
261.823	561.207
264.716	460.848
267.609	372.35
270.502	336.508
273.394	265.744
276.287	233.549
279.18	251.1
282.072	265.799
284.965	245.519
287.858	204.368
290.75	209.584
293.643	323.85
296.536	189.109
299.428	252.17
302.321	279.522
305.214	240.7
308.107	262.802
310.999	207.929
313.892	156.831
316.785	84.3218
319.677	94.1226
322.57	16.2422
325.463	68.4981
328.356	47.0498
331.248	54.7627
334.141	50.0093
337.034	15.561
339.926	9.20703
342.819	52.478
345.712	8.47217
348.604	27.9585
351.497	16.916
354.39	72.168
357.283	81.1074
360.175	68.2568
363.068	50.166
365.961	7.71143
368.853	38.9214
371.746	49.8887
374.639	79.3442
377.531	153.762
380.424	65.5093
383.317	39.5591
386.209	64.2949
389.102	74.8911
391.995	104.776
394.888	119.933
397.78	193.29
400.673	121.47
403.566	121.655
406.458	182.335
409.351	257.188
412.244	244.323
415.137	274.418
418.029	272.88
420.922	329.665
423.815	389.177
426.707	461.63
429.6	451.1
432.493	453.28
435.385	453.152
438.278	446.705
441.171	534.308
444.063	524.894
446.956	484.953
449.849	482.495
452.742	444.727
455.634	415.508
458.527	369.993
461.42	308.924
464.312	248.786
467.205	164.253
470.098	166.924
472.99	104.94
475.883	88.8755
478.776	29.3877
481.669	23.9644
484.561	32.9522
487.454	37.7895
490.347	10.644
493.239	37.8403
496.132	31.4175
499.025	16.8901
501.918	3.88379
504.81	54.1826
507.703	7.25391
510.596	116.847
513.488	118.172
516.381	106.056
519.274	156.967
522.166	161.917
525.059	174.438
527.952	195.727
530.845	107.314
533.737	124.143
536.63	124.538
539.523	176.31
542.415	128.565
545.308	134.095
548.201	140.487
551.093	67.6523
553.986	61.9971
556.879	26.5352
559.771	65.6821
562.664	12.9492
565.557	3.9292
568.45	9.88574
571.342	35.5435
574.235	11.7949
577.128	3.22461
580.02	39.1655
582.913	39.8994
585.806	23.6494
588.699	28.6489
591.591	24.3701
594.484	59.4927
597.377	12.145
600.269	24.0239
603.162	104.136
606.055	77.5415
608.947	92.8335
611.84	111.044
614.733	59.5068
617.626	85.8877
620.518	61.0024
623.411	134.082
626.304	106.766
629.196	110.895
632.089	116.632
634.982	163.162
637.875	122.97
640.767	111.199
643.66	119.377
646.553	111.079
649.445	113.628
652.338	86.8979
655.231	124.949
658.123	122.648
661.016	143.732
663.909	62.811
666.802	56.1909
669.694	103.449
672.587	28.9492
675.48	89.1856
678.372	41.5083
681.265	69.4692
684.158	24.0972
687.05	26.103
689.943	19.7378
692.836	32.2993
695.729	35.2671
698.621	38.2759
701.514	23.373
704.407	20.873
707.299	25.2554
710.192	15.6597
713.085	30.7583
715.977	110.517
718.87	9.7207
721.763	25.8232
724.655	57.061
727.548	15.4746
730.441	52.7398
733.334	34.1773
736.226	29.311
739.119	72.585
742.012	54.9482
744.904	68.8569
747.797	45.4131
750.69	92.8276
753.582	41.5981
756.475	58.144
759.368	53.4199
762.261	89.2764
765.153	69.3174
768.046	5.34326
770.939	70.8218
773.831	20.1895
776.724	44.9424
779.617	85.522
782.51	8.47998
785.402	81.6987
788.295	140.916
791.188	69
794.08	89.3979
796.973	162.841
799.866	133.749
802.758	135.51
805.651	229.722
808.544	310.255
811.437	289.442
814.329	326.634
817.222	376.354
820.115	425.123
823.007	437.633
825.9	467.765
828.793	481.854
831.685	437.355
834.578	501.796
837.471	499.384
840.364	486.921
843.256	350.218
846.149	447.254
849.042	436.089
851.934	426.643
854.827	385.482
857.72	314.226
860.612	270.694
863.505	320.769
866.398	242.457
869.29	200.744
872.183	101.02
875.076	186.329
877.969	177.854
880.861	118.072
883.754	86.416
886.647	73.3852
889.539	49.5185
892.432	29.3784
895.325	47.6626
898.217	39.0347
901.11	1.23144
904.003	6.66797
906.896	45.5464
909.788	73.0107
912.681	41.8242
915.574	22.2742
918.466	80.5666
921.359	97.166
924.252	97.9783
927.145	138.031
930.037	124.815
932.93	178.036
935.823	239.91
938.715	279.027
941.608	284.777
944.501	365.931
947.394	349.324
950.286	407.257
953.179	440.464
956.072	441.79
958.964	478.606
961.857	523.049
964.75	461.68
967.642	472.654
970.535	465.899
973.428	411.589
976.321	369.69
979.213	328.396
982.106	242.554
984.999	254.163
987.891	142.456
990.784	73.751
993.677	29.2046
996.569	45.7251
999.462	61.3855
1002.36	18.8457
1005.25	8.51636
1008.14	5.93311
1011.03	5.88745
1013.93	22.124
1016.82	25.7485
1019.71	57.6858
1022.6	44.7651
1025.5	36.1909
1028.39	38.3447
1031.28	32.0127
1034.17	38.8574
1037.07	70.8633
1039.96	104.211
1042.85	84.0269
1045.74	70.6594
1048.64	73.2695
1051.53	77.0759
1054.42	127.221
1057.32	65.9749
1060.21	55.4971
1063.1	101.292
1065.99	127.223
1068.89	40.1809
1071.78	80.0466
1074.67	63.8355
1077.57	122.253
1080.46	37.4941
1083.35	94.583
1086.24	116.852
1089.14	97.8208
1092.03	21.7246
1094.92	59.7046
1097.81	17.8984
1100.71	110.052
1103.6	90.0874
1106.49	31.1804
1109.38	75.7251
1112.28	42.9607
1115.17	79.4587
1118.06	82.9065
1120.96	59.4995
1123.85	91.8779
1126.74	54.3565
1129.63	141.589
1132.53	72.6785
1135.42	18.2356
1138.31	34.803
1141.2	74.8098
1144.1	36.4512
1146.99	3.39673
1149.88	34.1897
1152.78	35.8811
1155.67	56.3279
1158.56	64.9624
1161.45	101.798
1164.35	80.6172
1167.24	43.0093
1170.13	55.377
1173.02	69.6384
1175.92	47.5847
1178.81	49.0984
1181.7	59.3381
1184.6	86.7913
1187.49	64.8286
1190.38	94.3516
1193.27	50.9778
1196.17	67.563
1199.06	62.2661
1201.95	82.0381
1204.84	68.8791
1207.74	24.6797
1210.63	68.5981
1213.52	49.6448
1216.41	59.2302
1219.31	146.754
1222.2	115.435
1225.09	104.758
1227.98	117.503
1230.88	98.7544
1233.77	84.03
1236.66	7.06494
1239.56	47.2085
1242.45	78.3997
1245.34	82.0505
1248.23	106.3
1251.13	61.3496
1254.02	75.8423
1256.91	4.60376
1259.81	0.16748
