Measurement: Raman, 532 nm, unoriented, Raman Data Processed
Mineral: Jordisite
Rruff sample: R060864
Ideal chemistry: Mo^4+^S^2-^_2_
Locality: Bleiberg, Karnten, Osterreich, Austria
Source: Michael Scott
Description: Associated with dark blue massive ilsemannite
Raman shift (cm-1)	intensity
145.629	0
148.522	7.51819
151.414	0.989258
154.307	2.34045
157.2	12.305
160.092	28.9571
162.985	67.3208
165.878	52.5808
168.77	48.2402
171.663	68.3335
174.556	62.6329
177.448	92.8125
180.341	114.935
183.234	181.896
186.127	175.423
189.019	210.826
191.912	221.378
194.805	271.459
197.697	302.986
200.59	329.833
203.483	365.473
206.375	396.093
209.268	450.961
212.161	449.83
215.054	484.414
217.946	494.521
220.839	522.05
223.732	487.045
226.624	493.477
229.517	511.119
232.41	501.019
235.303	487.464
238.195	522.81
241.088	527.642
243.981	518.516
246.873	507.013
249.766	443.515
252.659	423.778
255.551	387.115
258.444	312.943
261.337	303.899
264.229	261.818
267.122	197.241
270.015	197.334
272.908	150.135
275.8	143.286
278.693	89.8992
281.586	77.5037
284.478	56.9083
287.371	55.6821
290.264	64.3304
293.156	5.15491
296.049	2.60242
298.942	13.823
301.834	24.6267
304.727	6.33801
307.62	29.3546
310.513	2.55481
313.405	10.4612
316.298	3.49939
319.191	16.7929
322.083	5.20496
324.976	20.2028
327.869	55.0215
330.762	47.1516
333.654	70.8243
336.547	52.8214
339.44	60.3654
342.332	54.4596
345.225	62.4037
348.118	92.6069
351.01	106.796
353.903	106.272
356.796	111.393
359.688	108.603
362.581	132.74
365.474	117.747
368.366	69.175
371.259	121.41
374.152	96.6874
377.045	99.6904
379.937	94.8179
382.83	58.373
385.723	65.6558
388.615	35.6321
391.508	65.0647
394.401	53.5201
397.293	30.3796
400.186	16.9102
403.079	60.3164
405.972	65.3099
408.864	78.0928
411.757	97.9528
414.65	84.904
417.542	126.769
420.435	130.845
423.328	146.994
426.221	128.102
429.113	164.941
432.006	168.674
434.899	147.459
437.791	179.274
440.684	183.862
443.577	135.418
446.469	103.51
449.362	100.719
452.255	116.734
455.147	83.7811
458.04	79.5454
460.933	46.6846
463.826	30.8225
466.718	20.6469
469.611	46.7082
472.504	33.9886
475.396	6.21777
478.289	18.4799
481.182	10.8911
484.074	1.12122
486.967	43.9756
489.86	22.3424
492.752	27.142
495.645	0.775879
498.538	18.0466
501.431	2.91211
504.323	0.286011
507.216	35.2278
510.109	11.2247
513.001	3.48254
515.894	13.553
518.787	32.2625
521.679	47.4721
524.572	44.5304
527.465	77.0413
530.358	49.0587
533.25	13.9944
536.143	13.6763
539.036	28.0769
541.928	24.9675
544.821	56.8772
547.714	60.038
550.606	69.7778
553.499	40.2325
556.392	41.0074
559.284	48.131
562.177	73.7307
565.07	60.1786
567.963	40.7966
570.855	41.3698
573.748	68.8574
576.641	5.76208
579.533	40.7705
582.426	28.3662
585.319	0.03894
588.212	40.7994
591.104	5.64551
593.997	2.58032
596.89	12.4428
599.782	4.55872
602.675	0.755493
605.568	10.3524
608.46	4.16626
611.353	34.7555
614.246	11.8363
617.139	8.19983
620.031	0.769043
622.924	25.134
625.817	24.2683
628.709	60.313
631.602	52.337
634.495	29.6178
637.387	14.2293
640.28	17.047
643.173	31.4606
646.066	46.2336
648.958	16.0127
651.851	29.6958
654.744	25.0018
657.636	47.3461
660.529	28.2806
663.422	43.4308
666.314	82.3859
669.207	10.713
672.1	50.9858
674.992	29.167
677.885	35.4758
680.778	6.17786
683.67	9.21118
686.563	12.7084
689.456	46.4062
692.349	65.4159
695.241	21.0148
698.134	38.2958
701.027	12.5621
703.919	36.7814
706.812	29.5209
709.705	41.9773
712.597	36.8508
715.49	43.0939
718.383	76.8219
721.276	38.3865
724.168	62.8213
727.061	6.98511
729.954	60.9136
732.846	21.9041
735.739	56.0426
738.632	47.9204
741.524	60.0734
744.417	46.3397
747.31	86.7881
750.203	64.715
753.095	64.9294
755.988	53.385
758.881	55.8817
761.773	71.7637
764.666	42.4645
767.559	9.36218
770.452	64.1329
773.344	34.7371
776.237	14.3076
779.13	17.2341
782.022	24.1595
784.915	22.9192
787.808	19.1058
790.7	12.0022
793.593	35.2925
796.486	1.25708
799.378	11.5918
802.271	21.3279
805.164	13
808.057	17.4292
810.949	13.1404
813.842	19.9509
816.735	19.5293
819.627	25.0464
822.52	4.78345
825.413	28.8223
828.305	40.0991
831.198	34.6043
834.091	4.78467
836.984	32.7925
839.876	42.2288
842.769	25.5608
845.662	24.9077
848.554	80.5413
851.447	39.3982
854.34	16.5974
857.232	34.0154
860.125	63.7075
863.018	64.1431
865.91	32.6567
868.803	30.4026
871.696	54.3921
874.589	32.2156
877.481	51.3267
880.374	51.0474
883.267	8.56567
886.159	110.504
889.052	71.6062
891.945	73.0212
894.837	120.318
897.73	126.181
900.623	76.3584
903.516	101.945
906.408	96.6614
909.301	102.577
912.194	124.895
915.086	228.33
917.979	237.61
920.872	278.873
923.764	371.48
926.657	381.166
929.55	407.985
932.442	437.746
935.335	573.401
938.228	633.62
941.121	693.582
944.013	804.345
946.906	851.579
949.799	954.728
952.691	1068.84
955.584	1102.37
958.477	1149.02
961.37	1163.9
964.262	1106.12
967.155	1050.87
970.048	932.172
972.94	792.459
975.833	702.321
978.726	550.104
981.618	451.904
984.511	294.486
987.404	191.409
990.296	150.202
993.189	41.8499
996.082	34.1609
998.975	15.3377
1001.87	16.3416
1004.76	45.2782
1007.65	34.7723
1010.54	7.01733
1013.44	32.5617
1016.33	71.9828
1019.22	17.6005
1022.12	71.9725
1025.01	85.5658
1027.9	84.1631
1030.79	68.8081
1033.69	65.043
1036.58	53.8066
1039.47	67.3522
1042.37	52.6386
1045.26	98.5779
1048.15	70.7759
1051.04	47.9657
1053.94	44.7293
1056.83	68.5658
1059.72	90.0478
1062.61	60.078
1065.51	24.374
1068.4	17.8904
1071.29	19.5872
1074.18	12.3654
1077.08	11.9442
1079.97	42.0442
1082.86	25.618
1085.76	52.6178
1088.65	36.5029
1091.54	32.926
1094.43	42.8131
1097.33	48.5791
1100.22	49.7587
1103.11	37.6178
1106	80.5842
1108.9	40.9858
1111.79	0.44397
1114.68	28.6226
1117.58	28.5569
1120.47	68.1874
1123.36	50.2487
1126.25	15.4357
1129.15	24.7212
1132.04	45.604
1134.93	40.6986
1137.82	36.8059
1140.72	28.3193
1143.61	24.6285
1146.5	9.77405
1149.39	21.5977
1152.29	42.4254
1155.18	5.22888
1158.07	48.5775
1160.97	54.803
1163.86	36.968
1166.75	18.3639
1169.64	5.69141
1172.54	20.2305
1175.43	27.9365
1178.32	45.65
1181.21	17.2999
1184.11	25.8103
1187	50.8434
1189.89	52.5532
1192.79	32.4409
1195.68	48.0308
1198.57	41.4282
1201.46	52.9653
1204.36	0.072021
1207.25	51.3742
1210.14	39.8852
1213.03	24.7872
1215.93	59.431
1218.82	2.70276
1221.71	28.012
1224.61	19.7158
1227.5	13.7737
1230.39	25.0356
1233.28	26.7748
1236.18	7.0144
1239.07	2.44458
1241.96	23.9293
1244.85	49.3341
1247.75	44.7064
1250.64	65.7865
1253.53	18.5753
1256.42	25.2164
1259.32	42.0743
1262.21	21.2845
1265.1	22.8439
1267.99	22.0542
1270.89	1.20508
1273.78	21.3496
1276.67	68.3424
1279.57	36.9958
