Measurement: Raman, 780 nm, unoriented, Raman Data Processed
Mineral: Jorgensenite
Rruff sample: R100009
Ideal chemistry: Na_2_Sr_14_Na_2_Al_12_F_64_(OH)_4_
Locality: Ivigtut, Frederikshab District, South West Greenland
Source: William Pinch
Description: Colorless massive, associated with pyrite, co-type sample
Raman shift (cm-1)	intensity
106.609	0
109.984	14.4927
113.358	15.4512
116.733	27.5066
120.108	20.8811
123.483	11.8796
126.858	7.17871
130.232	9.02148
133.607	0.901123
136.982	10.6494
140.357	16.8054
143.732	16.8616
147.107	25.7612
150.481	17.2331
153.856	25.1611
157.231	22.6326
160.606	32.8831
163.981	34.1826
167.355	46.7681
170.73	36.6274
174.105	38.5339
177.48	36.657
180.855	30.7248
184.23	47.4827
187.604	41.405
190.979	26.8179
194.354	28.3718
197.729	24.1331
201.104	19.4934
204.478	28.6521
207.853	37.678
211.228	48.6343
214.603	40.8821
217.978	27.9724
221.352	24.325
224.727	19.5869
228.102	12.1333
231.477	15.605
234.852	11.1497
238.227	13.1301
241.601	5.12671
244.976	5.29297
248.351	0.693604
251.726	9.63232
255.101	16.248
258.476	12.1797
261.85	6.71021
265.225	2.4104
268.6	18.6272
271.975	11.5566
275.349	9.89648
278.724	12.7539
282.099	19.8105
285.474	17.7346
288.849	23.4844
292.224	42.9348
295.598	51.8184
298.973	68.2854
302.348	71.1909
305.723	79.8677
309.098	80.4604
312.473	79.9602
315.847	73.2031
319.222	49.0681
322.597	29.1936
325.972	0.662354
329.347	2.65185
332.721	5.40527
336.096	4.66406
339.471	2.49731
342.846	6.9021
346.221	2.82243
349.596	0.572998
352.97	5.07056
356.345	2.8916
359.72	3.27319
363.095	13.186
366.47	5.45728
369.844	14.0154
373.219	10.8374
376.594	7.60522
379.969	19.4287
383.344	10.2297
386.719	22.2263
390.093	13.9985
393.468	4.92896
396.843	13.0698
400.218	4.65845
403.593	1.49634
406.967	7.08716
410.342	16.8332
413.717	14.8779
417.092	17.7664
420.467	6.27539
423.841	19.1304
427.216	8.21289
430.591	8.60547
433.966	4.68286
437.341	6.35718
440.716	7.14575
444.09	14.8313
447.465	11.6548
450.84	6.52539
454.215	10.188
457.59	4.43066
460.964	0.233887
464.339	4.52368
467.714	6.53076
471.089	8.56421
474.464	10.6704
477.839	2.37647
481.213	3.9104
484.588	6.44727
487.963	17.2532
491.338	22.1172
494.713	34.6962
498.087	46.9081
501.462	72.3506
504.837	94.0977
508.212	118.372
511.587	143.809
514.962	172.327
518.336	178.46
521.711	155.435
525.086	134.038
528.461	111.758
531.836	92.0126
535.21	65.4242
538.585	45.572
541.96	31.9224
545.335	17.0901
548.71	10.9287
552.085	7.51953
555.459	1.4176
558.834	0.659424
562.209	1.16748
565.584	2.18884
568.959	5.35681
572.333	1.52612
575.708	0.048096
579.083	3.42944
582.458	10.9386
585.833	19.3367
589.207	24.4133
592.582	24.223
595.957	24.1299
599.332	28.3843
602.707	25.787
606.082	26.4838
609.456	24.6594
612.831	24.6611
616.206	25.3406
619.581	17.5602
622.956	12.3962
626.331	9.96057
629.705	15.6699
633.08	1.27234
636.455	7.12854
639.83	4.4696
643.205	5.49207
646.579	5.77966
649.954	1.06946
653.329	4.48315
656.704	4.80103
660.079	5.34387
663.453	10.3661
666.828	4.75049
670.203	7.24963
673.578	1.81519
676.953	0.97522
680.328	4.28967
683.702	1.38171
687.077	3.38171
690.452	1.02087
693.827	4.23962
697.202	12.3165
700.577	8.224
703.951	4.13245
707.326	6.46899
710.701	6.83057
714.076	5.45606
717.451	9.46374
720.825	9.48791
724.2	5.6488
727.575	2.99744
730.95	6.02441
734.325	4.33057
737.699	4.04431
741.074	7.5863
744.449	7.92944
747.824	0.668335
751.199	5.48364
754.573	3.83435
757.948	1.95178
761.323	7.14539
764.698	3.64941
768.073	7.01306
771.448	2.01123
774.822	1.11035
778.197	1.04981
781.572	2.20288
784.947	0.889893
788.322	6.99731
791.697	7.70874
795.071	7.27564
798.446	7.64123
801.821	3.11951
805.196	1.41589
808.571	4.71814
811.945	5.85974
815.32	4.49695
818.695	6.06433
822.07	5.052
825.445	0.945679
828.819	7.84436
832.194	9.37097
835.569	4.14233
838.944	2.84204
842.319	3.58801
845.694	5.47681
849.068	7.34277
852.443	6.2887
855.818	5.11304
859.193	9.88477
862.568	9.85584
865.942	5.12476
869.317	1.95044
872.692	2.53015
876.067	6.81006
879.442	4.73132
882.817	1.50916
886.191	5.89624
889.566	0.874512
892.941	6.71851
896.316	1.40051
899.691	3.16968
903.066	0.792847
906.44	6.20203
909.815	1.85461
913.19	2.91479
916.565	5.15845
919.94	2.34815
923.314	2.84314
926.689	4.44135
930.064	7.88629
933.439	4.20691
936.814	3.57172
940.188	4.14032
943.563	5.25592
946.938	1.50971
950.313	6.09943
953.688	7.80316
957.063	7.27307
960.437	6.89008
963.812	6.39191
967.187	6.54883
970.562	1.73602
973.937	0.047363
977.312	3.26233
980.686	1.89838
984.061	5.25696
987.436	3.3122
990.811	2.74304
994.186	0.231201
997.56	6.79736
1000.93	13.2968
1004.31	5.58496
1007.68	3.99036
1011.06	0.638916
1014.43	4.4964
1017.81	2.31494
1021.18	7.58502
1024.56	0.132324
1027.93	3.45325
1031.31	8.99176
1034.68	5.54236
1038.06	1.87237
1041.43	4.9787
1044.81	6.90411
1048.18	6.52441
1051.56	2.92322
1054.93	8.40698
1058.31	4.04797
1061.68	2.25842
1065.06	3.03278
1068.43	6.40674
1071.81	4.22015
1075.18	8.45904
1078.56	10.4259
1081.93	8.96173
1085.31	8.87329
1088.68	8.77161
1092.06	11.2975
1095.43	6.74609
1098.81	7.04541
1102.18	4.07922
1105.55	3.90198
1108.93	3.51733
1112.3	3.0166
1115.68	1.50317
1119.05	1.28027
1122.43	1.98059
1125.8	3.19239
1129.18	1.43323
1132.55	3.83984
1135.93	4.64978
1139.3	6.82214
1142.68	7.91602
1146.05	11.9815
1149.43	11.6246
1152.8	9.849
1156.18	9.828
1159.55	11.998
1162.93	13.7582
1166.3	14.1655
1169.68	14.1205
1173.05	16.7041
1176.43	11.0487
1179.8	11.9318
1183.17	11.4691
1186.55	9.64966
1189.92	13.902
1193.3	11.1693
1196.67	20.642
1200.05	18.2895
1203.42	12.9805
1206.8	13.4027
1210.17	11.3829
1213.55	9.87134
1216.92	0.119141
1220.3	2.44006
1223.67	0.65564
1227.05	3.93164
1230.42	2.41931
1233.8	5.36804
1237.17	2.18603
1240.55	6.34631
1243.92	2.7456
1247.3	6.82495
1250.67	3.97241
1254.05	7.08899
1257.42	6.30371
1260.8	6.88061
1264.17	3.25586
1267.55	6.31543
1270.92	6.17273
1274.3	5.50476
1277.67	8.56482
1281.05	1.76282
1284.42	3.42859
