Measurement: Raman, 532 nm, unoriented, Raman Data Processed
Mineral: Julgoldite-(Fe2+)
Rruff sample: R070725
Ideal chemistry: Ca_2_Fe^2+^Fe^3+^_2_(Si_2_O_7_)(SiO_4_)(OH)_2_H_2_O
Locality: Khandivali Quarry (Kandivali Quarry),  Mumbai District (Bombay District),  Maharashtra,  India
Source: Michael Scott
Description: Clusters of black blades associated with pale green bladed prehnite and quartz
Measured chemistry: Ca_2.00_(Fe^2+^_0.86_Mg_0.14_)_Σ=1_(Fe^3+^_1.67_Al_0.33_)_Σ=2_(Si_2.00_O_7_)(Si_1.00_O_4_)(OH)_2_·H_2_O; OH by charge balance = light; Ca_2.00_(Fe^2+^_0.82_Mg_0.18_)_Σ=1_(Fe^3+^_1.44_Al_0.58_)_Σ=2_(Si_2.00_O_7_)(Si_1.00_O_4_)(OH)_2_·H_2_O = darker
Raman shift (cm-1)	intensity
150.983	0
153.875	9.79126
156.768	4.32397
159.661	13.8174
162.554	101.826
165.446	17.6382
168.339	19.8477
171.232	70.7903
174.124	5.72461
177.017	38.9719
179.91	26.3054
182.803	31.5989
185.695	108.344
188.588	157.337
191.481	163.318
194.373	311.195
197.266	373.901
200.159	416.301
203.051	575.102
205.944	625.552
208.837	621.446
211.729	561.182
214.622	556.893
217.515	457.877
220.407	324.416
223.3	291.634
226.193	300.846
229.086	236.326
231.978	164.832
234.871	94.2739
237.764	77.8397
240.656	12.7706
243.549	43.8666
246.442	80.2173
249.334	108.18
252.227	166.562
255.12	113.316
258.013	288.183
260.905	277.151
263.798	248.915
266.691	240.054
269.583	174.585
272.476	84.7252
275.369	80.3777
278.262	8.55286
281.154	47.7161
284.047	15.7079
286.94	13.2098
289.832	4.05408
292.725	9.65613
295.618	9.30859
298.51	76.2577
301.403	15.6588
304.296	49.5687
307.188	61.2358
310.081	70.646
312.974	87.1027
315.867	77.6243
318.759	59.964
321.652	59.1919
324.545	149.22
327.437	132.675
330.33	177.114
333.223	327.242
336.115	329.452
339.008	391.205
341.901	430.423
344.794	405.278
347.686	338.911
350.579	353.796
353.472	377.977
356.364	458.578
359.257	399.183
362.15	401.821
365.043	276.241
367.935	301.315
370.828	255.685
373.721	219.082
376.613	204.787
379.506	119.556
382.399	149.644
385.291	158.612
388.184	147.802
391.077	149.618
393.969	203.701
396.862	315.369
399.755	338.749
402.648	313.892
405.54	297.464
408.433	256.554
411.326	146.551
414.218	116.4
417.111	44.4412
420.004	59.575
422.897	1.10352
425.789	64.7899
428.682	24.1892
431.575	52.8892
434.467	63.4672
437.36	14.4702
440.253	14.8829
443.145	3.61084
446.038	66.8242
448.931	191.519
451.824	141.393
454.716	131.955
457.609	234.865
460.502	251.937
463.394	292.724
466.287	362.728
469.18	338.007
472.072	345.259
474.965	268.64
477.858	231.617
480.75	142.447
483.643	116.733
486.536	27.6191
489.429	44.6152
492.321	48.1272
495.214	19.9335
498.107	3.17053
500.999	20.6272
503.892	23.0499
506.785	79.049
509.678	64.2269
512.57	97.3632
515.463	147.179
518.356	181.249
521.248	187.784
524.141	241.294
527.034	254.565
529.926	321.924
532.819	296.106
535.712	294.271
538.604	325.5
541.497	273.042
544.39	270.161
547.283	311.75
550.175	356.07
553.068	348.286
555.961	339.649
558.853	305.42
561.746	342.436
564.639	394.702
567.531	421.31
570.424	521.705
573.317	507.425
576.21	546.372
579.102	547.803
581.995	529.184
584.888	385.173
587.78	360.573
590.673	304.479
593.566	239.645
596.458	204.286
599.351	216.668
602.244	150.659
605.136	115.826
608.029	99.304
610.922	13.0589
613.815	33.6769
616.707	5.41742
619.6	35.1798
622.493	3.48645
625.385	31.3832
628.278	4.52582
631.171	13.0695
634.063	43.1519
636.956	29.9135
639.849	79.1228
642.742	43.8434
645.634	48.8809
648.527	52.8124
651.42	49.3081
654.312	46.7228
657.205	48.4905
660.098	43.5294
662.99	68.8757
665.883	31.4388
668.776	115.58
671.669	101.705
674.561	80.8449
677.454	136.332
680.347	215.625
683.239	299.655
686.132	301.653
689.025	361.947
691.918	308.736
694.81	280.365
697.703	217.598
700.596	143.349
703.488	79.4651
706.381	76.6909
709.274	108.734
712.166	68.9095
715.059	7.15106
717.952	36.6544
720.845	32.3441
723.737	8.6842
726.63	18.752
729.523	53.3462
732.415	54.2902
735.308	35.3143
738.201	55.0092
741.093	39.001
743.986	30.9009
746.879	31.1328
749.771	6.73291
752.664	35.7466
755.557	17.0212
758.45	10.6216
761.342	4.45215
764.235	11.8673
767.128	38.2077
770.02	11.6389
772.913	7.56366
775.806	24.9794
778.698	12.3339
781.591	11.0702
784.484	40.7124
787.377	59.6912
790.269	17.6525
793.162	64.1161
796.055	51.9046
798.947	77.4992
801.84	79.4059
804.733	112.95
807.625	99.9247
810.518	118.185
813.411	131.712
816.304	76.3653
819.196	73.0565
822.089	108.374
824.982	125.913
827.874	106.297
830.767	130.107
833.66	146.45
836.552	196.283
839.445	193.862
842.338	238.078
845.231	224.585
848.123	222.794
851.016	214.62
853.909	193.6
856.801	164.269
859.694	195.973
862.587	167.902
865.479	140.162
868.372	107.404
871.265	88.3574
874.158	114.099
877.05	71.6041
879.943	54.9035
882.836	42.4711
885.728	9.19006
888.621	39.2498
891.514	29.9155
894.406	7.56323
897.299	7.32349
900.192	6.73413
903.085	0.603394
905.977	22.2567
908.87	42.4713
911.763	12.5528
914.655	7.67603
917.548	22.1351
920.441	33.7412
923.333	21.2426
926.226	24.3392
929.119	31.8117
932.011	72.7358
934.904	46.0757
937.797	68.8563
940.69	90.7075
943.582	72.6791
946.475	90.7548
949.368	81.403
952.26	117.824
955.153	120.6
958.046	111.322
960.938	107.596
963.831	125.854
966.724	78.1834
969.617	81.1734
972.509	96.3547
975.402	76.7971
978.295	85.4957
981.187	72.3578
984.08	63.0241
986.973	65.5852
989.865	48.7064
992.758	36.3708
995.651	62.2835
998.544	77.6988
1001.44	81.2532
1004.33	65.6899
1007.22	65.2549
1010.11	52.6934
1013.01	81.5584
1015.9	48.4168
1018.79	75.8074
1021.68	66.8251
1024.58	87.2313
1027.47	59.7551
1030.36	98.523
1033.26	84.7628
1036.15	53.5092
1039.04	72.2902
1041.93	62.1994
1044.83	25.2938
1047.72	68.4852
1050.61	28.9023
1053.51	15.8483
1056.4	30.8775
1059.29	33.4117
1062.18	12.1952
1065.08	22.7368
1067.97	9.45447
1070.86	2.10577
1073.75	16.1072
1076.65	4.50653
1079.54	29.5312
1082.43	32.3886
1085.33	3.62402
1088.22	84.0194
1091.11	8.67609
1094	27.3484
1096.89	44.7176
1099.79	51.3582
1102.68	38.1625
1105.57	18.5765
1108.47	25.2503
1111.36	25.3875
1114.25	65.0189
1117.14	10.3541
1120.04	40.4773
1122.93	25.0858
1125.82	50.3716
1128.71	50.522
1131.61	52.0665
1134.5	40.3865
1137.39	33.293
1140.29	17.7781
1143.18	10.6571
1146.07	42.9706
1148.96	61.8588
1151.86	6.15143
1154.75	19.97
1157.64	25.631
1160.54	14.6701
1163.43	24.8109
1166.32	27.8034
1169.21	8.47479
1172.11	3.57483
1175	10.9084
1177.89	1.47321
1180.78	41.0964
1183.68	14.314
1186.57	45.8802
1189.46	82.4462
1192.35	56.7643
1195.25	29.1058
1198.14	70.4242
1201.03	35.7614
1203.92	15.3823
1206.82	43.5619
1209.71	76.0448
1212.6	2.23914
1215.5	31.8447
1218.39	24.6226
1221.28	62.4953
1224.17	11.8176
1227.07	12.9345
1229.96	4.37433
