Measurement: Raman, 785 nm, unoriented, Raman Data Processed
Mineral: Julgoldite-(Fe3+)
Rruff sample: R070261
Ideal chemistry: Ca_2_Fe^3+^Fe^3+^_2_(Si_2_O_7_)(SiO_4_)O(OH)H_2_O
Locality: Harstigen Mine, Pajsberg, Filipstad, Varmland, Sweden
Source: Michael Scott
Description: Dark gray metallic massive associated with hematite, andradite and rhodonite
Raman shift (cm-1)	intensity
182.73	0
185.623	18.2913
188.516	44.542
191.408	46.7266
194.301	92.3298
197.194	113.716
200.087	146.036
202.979	115.79
205.872	71.4119
208.765	72.5828
211.657	0.676758
214.55	0.569092
217.443	14.2913
220.335	32.2654
223.228	23.8919
226.121	2.58276
229.013	27.4495
231.906	26.1475
234.799	21.4827
237.692	43.7036
240.584	1.66748
243.477	24.2473
246.37	36.6289
249.262	46.7102
252.155	34.8052
255.048	11.8765
257.941	42.6917
260.833	16.4831
263.726	54.5212
266.619	4.78223
269.511	8.22974
272.404	0.004395
275.297	33.1523
278.19	43.6138
281.082	4.47974
283.975	19.8909
286.868	44.4805
289.76	24.1445
292.653	20.1653
295.546	17.573
298.438	14.3765
301.331	67.9514
304.224	107.039
307.116	105.909
310.009	139.459
312.902	198.588
315.795	265.187
318.687	323.34
321.58	366.809
324.473	418.14
327.365	362.142
330.258	400.01
333.151	353.242
336.043	362.472
338.936	288.765
341.829	399.212
344.721	384.936
347.614	434.626
350.507	490.813
353.4	479.471
356.292	442.69
359.185	444.754
362.078	406.79
364.97	399.492
367.863	352.357
370.756	363.666
373.649	438.002
376.541	506.72
379.434	538.078
382.327	574.961
385.219	543.185
388.112	510.223
391.005	461.08
393.897	344.117
396.79	273.551
399.683	141.17
402.575	101.985
405.468	50.0198
408.361	39.4128
411.254	43.6685
414.146	14.2434
417.039	34.1145
419.932	5.9707
422.824	10.7954
425.717	21.1457
428.61	4.82251
431.502	1.68848
434.395	22.3787
437.288	24.5312
440.181	30.4605
443.073	2.87476
445.966	38.3706
448.859	0.979248
451.751	37.6418
454.644	42.1702
457.537	64.6912
460.43	78.7942
463.322	50.7007
466.215	73.5884
469.108	89.5764
472	41.8018
474.893	40.2427
477.786	35.8015
480.678	12.8367
483.571	28.9504
486.464	19.3738
489.356	44.7437
492.249	30.4033
495.142	13.5151
498.035	43.8855
500.927	37.7483
503.82	68.1086
506.713	111.358
509.605	124.365
512.498	144.005
515.391	146.22
518.284	174.238
521.176	225.116
524.069	292.139
526.962	336.551
529.854	354.984
532.747	390.419
535.64	456.588
538.533	501.712
541.425	551.842
544.318	502.95
547.211	516.089
550.103	489.411
552.996	497.849
555.889	383.438
558.781	403.586
561.674	366.254
564.567	347.024
567.459	295.1
570.352	269.813
573.245	259.455
576.138	200.25
579.03	120.96
581.923	21.949
584.816	28.6916
587.708	51.1912
590.601	1.86523
593.494	3.53442
596.386	14.1582
599.279	1.74658
602.172	8.19678
605.064	9.55884
607.957	27.8555
610.85	3.15332
613.743	33.3091
616.635	82.7498
619.528	106.893
622.421	153.004
625.313	250.698
628.206	248.036
631.099	262.698
633.991	201.881
636.884	225.695
639.777	183.948
642.67	204.57
645.562	207.665
648.455	259.223
651.348	285.669
654.24	363.728
657.133	543.244
660.026	686.359
662.918	901.476
665.811	1067.28
668.704	1112.35
671.597	977.459
674.489	667.831
677.382	445.175
680.275	276.716
683.167	158.732
686.06	72.6572
688.953	91.7996
691.846	66.6423
694.738	55.7908
697.631	13.7315
700.524	58.9639
703.416	30.2205
706.309	1.60693
709.202	1.12695
712.094	43.8357
714.987	59.511
717.88	23.8611
720.773	14.8665
723.665	38.7532
726.558	39.9314
729.451	53.311
732.343	2.78711
735.236	8.77759
738.129	15.6558
741.021	8.1001
743.914	19.4123
746.807	21.6416
749.699	3.01978
752.592	28.397
755.485	49.624
758.378	15.8618
761.27	28.4663
764.163	5.25098
767.056	40.46
769.948	9.39038
772.841	16.2686
775.734	76.8464
778.626	12.0732
781.519	2.94653
784.412	44.0352
787.305	45.157
790.197	30.9622
793.09	55.3745
795.983	52.2064
798.875	6.46826
801.768	65.2129
804.661	88.7441
807.553	25.8577
810.446	48.2114
813.339	94.0331
816.232	38.3392
819.124	22.9987
822.017	28.2024
824.91	25.5488
827.802	1.81543
830.695	20.1851
833.588	6.67773
836.481	14.3711
839.373	26.708
842.266	5.88623
845.159	5.89258
848.051	38.4092
850.944	1.93774
853.837	62.488
856.729	44.1501
859.622	52.2585
862.515	65.4263
865.408	102.934
868.3	163.7
871.193	200.263
874.086	207.826
876.978	210.38
879.871	222.324
882.764	240.486
885.656	249.602
888.549	246.739
891.442	211.585
894.335	183.388
897.227	165.755
900.12	176.196
903.013	114.145
905.905	108.541
908.798	74.6877
911.691	105.404
914.583	75.6143
917.476	50.9619
920.369	68.948
923.261	23.0107
926.154	52.7407
929.047	19.7886
931.94	7.9812
934.832	20.9121
937.725	7.72363
940.618	24.2063
943.51	21.998
946.403	16.5015
949.296	10.5727
952.188	38.6472
955.081	88.8735
957.974	113.745
960.867	164.038
963.759	165.681
966.652	160.364
969.545	203.15
972.437	215.867
975.33	248.132
978.223	310.186
981.115	333.004
984.008	313.852
986.901	370.847
989.794	335.846
992.686	309.063
995.579	323.57
998.472	331
1001.36	380.564
1004.26	477.375
1007.15	498.741
1010.04	648.552
1012.93	699.015
1015.83	664.248
1018.72	574.307
1021.61	476.844
1024.51	326.135
1027.4	337.786
1030.29	202.639
1033.18	199.29
1036.08	207.09
1038.97	166.281
1041.86	93.7201
1044.76	91.489
1047.65	97.4532
1050.54	48.4564
1053.43	23.807
1056.33	51.3281
1059.22	35.1971
1062.11	6.06775
1065	22.5372
1067.9	34.0596
1070.79	38.032
1073.68	16.4471
1076.58	6.06763
1079.47	21.7614
1082.36	35.1414
1085.25	4.52356
1088.14	2.14331
1091.04	1.7887
1093.93	8.302
1096.82	30.8789
1099.72	17.2014
1102.61	13.2239
1105.5	55.8474
1108.39	88.5964
1111.29	75.4203
1114.18	97.2732
1117.07	107.728
1119.96	124.648
1122.86	82.5135
1125.75	137.017
1128.64	102.299
1131.54	95.9608
1134.43	105.102
1137.32	102.32
1140.21	90.5076
1143.11	24.0509
1146	38.7968
1148.89	27.4762
1151.79	33.9652
1154.68	29.1914
1157.57	16.1874
1160.46	3.83069
1163.36	12.5134
1166.25	18.2113
1169.14	23.9623
1172.03	38.447
1174.93	24.4248
1177.82	66.9273
1180.71	16.3604
1183.6	68.9
1186.5	52.0922
1189.39	70.684
1192.28	52.3315
1195.17	71.9965
1198.07	89.8922
1200.96	86.0309
1203.85	73.4052
1206.75	63.2998
1209.64	54.6582
1212.53	83.583
1215.42	17.4578
1218.32	50.7449
1221.21	64.8675
1224.1	18.1935
1226.99	19.8151
