Measurement: Raman, 532 nm, unoriented, Raman Data Processed
Mineral: Julgoldite-(Fe3+)
Rruff sample: R070261
Ideal chemistry: Ca_2_Fe^3+^Fe^3+^_2_(Si_2_O_7_)(SiO_4_)O(OH)H_2_O
Locality: Harstigen Mine, Pajsberg, Filipstad, Varmland, Sweden
Source: Michael Scott
Description: Dark gray metallic massive associated with hematite, andradite and rhodonite
Raman shift (cm-1)	intensity
206.07	0
208.962	65.5859
211.855	34.8662
214.748	72.8311
217.64	173.75
220.533	116.531
223.426	144.375
226.318	185.907
229.211	86.2153
232.104	4.39209
234.996	43.9448
237.889	15.1401
240.782	14.186
243.675	65.9902
246.567	6.68604
249.46	54.105
252.353	24.5327
255.245	33.3779
258.138	9.51855
261.031	53.3071
263.923	94.3301
266.816	97.8418
269.709	93.3852
272.602	88.8916
275.494	96.8789
278.387	61.6445
281.28	110.626
284.173	111.804
287.065	91.2119
289.958	48.0566
292.851	68.2158
295.743	137.1
298.636	169.001
301.529	218.99
304.421	290.245
307.314	452.04
310.207	625.303
313.099	753.451
315.992	897.179
318.885	1136.06
321.778	1258.67
324.67	1311.93
327.563	1228.98
330.456	1300.59
333.348	1199.19
336.241	1198.78
339.134	1295.36
342.026	1364.04
344.919	1505.83
347.812	1608.22
350.705	1696.27
353.597	1653.9
356.49	1504.13
359.383	1310.52
362.275	1130
365.168	1032.71
368.061	1010.75
370.954	1107.31
373.846	1227.15
376.739	1453.31
379.632	1804.08
382.524	2073.08
385.417	2096.35
388.31	1941.95
391.202	1768.02
394.095	1248.52
396.988	801.947
399.88	467.19
402.773	347.882
405.666	285.196
408.559	176.662
411.451	183.086
414.344	175.028
417.237	157.446
420.129	64.1103
423.022	1.49316
425.915	12.8916
428.808	1.63379
431.7	92.0332
434.593	83.9639
437.486	44.3369
440.378	1.89551
443.271	38.9424
446.164	56.8115
449.056	74.0215
451.949	201.16
454.842	124.167
457.735	165.363
460.627	205.469
463.52	148.97
466.413	128.28
469.305	89.9981
472.198	93.3438
475.091	69.2832
477.983	53.0068
480.876	81.2754
483.769	62.3926
486.661	160.968
489.554	47.8232
492.447	31.4521
495.34	79.4707
498.232	123.064
501.125	165.193
504.018	183.797
506.911	298.283
509.803	365.159
512.696	461.278
515.589	654.516
518.481	723.493
521.374	902.56
524.267	1021.43
527.159	1131.91
530.052	1361.28
532.945	1593.06
535.837	1804.04
538.73	1943.04
541.623	2019.35
544.516	1970.72
547.408	1860.84
550.301	1734.53
553.194	1502.06
556.086	1423.25
558.979	1353.34
561.872	1082.51
564.764	960.203
567.657	701.038
570.55	567.199
573.443	499.441
576.335	363.377
579.228	193.512
582.121	106.394
585.013	32.3613
587.906	3.39844
590.799	11.2627
593.692	39.0049
596.584	63.5107
599.477	28.1777
602.37	7.89746
605.262	24.4834
608.155	82.8027
611.048	160.78
613.94	283.03
616.833	333.648
619.726	618.025
622.619	906.423
625.511	1103.94
628.404	1266.61
631.297	1250.04
634.189	1209.91
637.082	1043.31
639.975	1069.99
642.867	888.774
645.76	974.748
648.653	1001.14
651.545	1078.09
654.438	1270.59
657.331	1623.03
660.224	2030.37
663.116	2453.35
666.009	2692.38
668.902	2460.72
671.794	1926.54
674.687	1311.97
677.58	690.977
680.472	501.748
683.365	305.595
686.258	198.057
689.151	120.183
692.043	56.8701
694.936	48.0752
697.829	28.7051
700.721	5.48535
703.614	34.5303
706.507	31.1553
709.399	80.5176
712.292	142.892
715.185	132.287
718.078	163.971
720.97	88.3125
723.863	152.749
726.756	120.885
729.648	125.527
732.541	88.2012
735.434	115.212
738.327	80.7803
741.219	130.673
744.112	38.0674
747.005	112.614
749.897	23.9229
752.79	7.81738
755.683	0.460938
758.576	70.1631
761.468	46.9277
764.361	47.6895
767.254	34.8877
770.146	61.3799
773.039	1.54981
775.932	16.5283
778.824	62.4219
781.717	50.7012
784.61	46.957
787.503	209.812
790.395	216.082
793.288	235.298
796.181	290.324
799.073	261.536
801.966	294.192
804.859	306.562
807.751	326.386
810.644	353.006
813.537	367.607
816.429	413.667
819.322	338.496
822.215	419.289
825.108	347.539
828	243.754
830.893	166.852
833.786	116.611
836.678	28.8594
839.571	2.68457
842.464	17.4863
845.356	17.1562
848.249	11.5664
851.142	42.5352
854.035	155.901
856.927	346.719
859.82	558.821
862.713	817.815
865.605	1128.7
868.498	1457.59
871.391	1692.99
874.284	1822.72
877.176	1875.43
880.069	1745.03
882.962	1768.04
885.854	1618.44
888.747	1470.64
891.64	1286.9
894.533	1233.68
897.425	994.104
900.318	869.979
903.211	762.28
906.103	575.846
908.996	558.212
911.889	439.47
914.781	355.956
917.674	153.711
920.567	112.355
923.46	26.7373
926.352	18.0586
929.245	18.4033
932.138	82.4316
935.03	47.7549
937.923	12.2871
940.816	82.7754
943.708	196.834
946.601	460.973
949.494	756.235
952.386	1062.85
955.279	1344.7
958.172	1633.19
961.065	1973.26
963.957	2183.1
966.85	2326.33
969.743	2501.13
972.635	2726.83
975.528	3063
978.421	3377.02
981.313	3656.48
984.206	3661.45
987.099	3444.01
989.992	2898.94
992.884	2571.27
995.777	2081.24
998.67	1892.97
1001.56	1823.33
1004.46	1988.39
1007.35	2042.69
1010.24	2248.29
1013.13	2271.35
1016.03	2284.94
1018.92	1967.38
1021.81	1632.6
1024.7	1297.94
1027.6	1205.39
1030.49	826.617
1033.38	750.672
1036.28	639.47
1039.17	486.185
1042.06	450.174
1044.95	343.139
1047.85	198.23
1050.74	153.378
1053.63	34.5547
1056.52	68.6064
1059.42	64.3535
1062.31	0.151367
1065.2	49.4053
1068.09	14.3301
1070.99	24.2041
1073.88	28.4033
1076.77	55.542
1079.66	46.2949
1082.56	33.0977
1085.45	76.0742
1088.34	81.7451
1091.24	171.171
1094.13	62.665
1097.02	204.798
1099.91	226.423
1102.81	278.666
1105.7	377.835
1108.59	451.246
1111.48	540.332
1114.38	686.395
1117.27	695.312
1120.16	895.889
1123.06	915.328
1125.95	1006.66
1128.84	952.641
1131.73	939.399
1134.63	812.606
1137.52	833.948
1140.41	575.166
1143.31	509.792
1146.2	354.62
1149.09	246.227
1151.98	100.622
1154.88	95.6279
1157.77	53.2236
1160.66	3.05371
1163.55	20.1299
1166.45	26.501
1169.34	22.1875
1172.23	61.9707
1175.12	86.4482
1178.02	104.634
1180.91	87.4424
1183.8	138.405
1186.69	211.53
1189.59	179.535
1192.48	217.941
1195.37	97.7451
1198.27	101.093
1201.16	253.478
1204.05	159.375
1206.94	182.326
1209.84	159.559
1212.73	209.399
1215.62	161.875
1218.52	217.383
1221.41	164.112
1224.3	107.288
1227.19	64.5176
1230.09	118.79
1232.98	170.208
1235.87	186.062
1238.76	37.4219
1241.66	162.454
1244.55	162.05
1247.44	160.546
1250.34	70.1816
1253.23	99.2637
1256.12	3.43457
1259.01	84.1543
1261.91	91.292
1264.8	103.284
1267.69	180.634
1270.58	146.926
1273.48	88.6152
1276.37	57.5947
1279.26	113.39
1282.15	100.499
1285.05	102.074
1287.94	40.5254
1290.83	81.5391
1293.72	53.6279
1296.62	40.4609
1299.51	27.1689
