Measurement: Raman, 780 nm, unoriented, Raman Data Processed
Mineral: Julgoldite-(Fe2+)
Rruff sample: R070725
Ideal chemistry: Ca_2_Fe^2+^Fe^3+^_2_(Si_2_O_7_)(SiO_4_)(OH)_2_H_2_O
Locality: Khandivali Quarry (Kandivali Quarry),  Mumbai District (Bombay District),  Maharashtra,  India
Source: Michael Scott
Description: Clusters of black blades associated with pale green bladed prehnite and quartz
Measured chemistry: Ca_2.00_(Fe^2+^_0.86_Mg_0.14_)_Σ=1_(Fe^3+^_1.67_Al_0.33_)_Σ=2_(Si_2.00_O_7_)(Si_1.00_O_4_)(OH)_2_·H_2_O; OH by charge balance = light; Ca_2.00_(Fe^2+^_0.82_Mg_0.18_)_Σ=1_(Fe^3+^_1.44_Al_0.58_)_Σ=2_(Si_2.00_O_7_)(Si_1.00_O_4_)(OH)_2_·H_2_O = darker
Raman shift (cm-1)	intensity
140.737	0
143.629	28.874
146.522	9.25098
149.415	65.7266
152.307	122.588
155.2	177.899
158.093	151.884
160.986	115.901
163.878	227.507
166.771	11.3086
169.664	97.6709
172.556	61.7529
175.449	58.7148
178.342	21.0967
181.234	117.618
184.127	222.703
187.02	391.669
189.912	538.427
192.805	1163.58
195.698	1445.94
198.591	1827.28
201.483	2199.32
204.376	2821.34
207.269	2894.79
210.161	2821.88
213.054	2327.22
215.947	1925.56
218.839	1456.02
221.732	1081
224.625	739.908
227.518	537.414
230.41	287.502
233.303	213.572
236.196	38.8828
239.088	36.458
241.981	85.167
244.874	37.7598
247.767	61.5166
250.659	92.0156
253.552	349.698
256.445	572.902
259.337	714.807
262.23	789.561
265.123	717.15
268.015	429.12
270.908	212.989
273.801	75.0747
276.693	17.3481
279.586	91.6523
282.479	24.8818
285.372	65.7412
288.264	149.541
291.157	271.371
294.05	445.497
296.942	530.227
299.835	612.346
302.728	603.062
305.62	702.956
308.513	505.059
311.406	521.875
314.299	552.683
317.191	538.336
320.084	606.996
322.977	538.586
325.869	637.51
328.762	873.842
331.655	1254.25
334.548	1536.11
337.44	1874.95
340.333	2098.3
343.226	2053.11
346.118	1861.91
349.011	1518.51
351.904	1259.16
354.796	932.945
357.689	980.747
360.582	998.578
363.474	963.832
366.367	1009.63
369.26	1010.71
372.153	968.97
375.045	958.071
377.938	835.29
380.831	851.209
383.723	970.543
386.616	900.695
389.509	1064.84
392.401	1394.28
395.294	1539.97
398.187	1921.41
401.08	1932.67
403.972	1851.03
406.865	1476.97
409.758	1106.38
412.65	680.844
415.543	316.788
418.436	188.903
421.329	43.6172
424.221	122.351
427.114	88.7349
430.007	55.2451
432.899	74.104
435.792	66.5537
438.685	106.432
441.577	158.145
444.47	294.003
447.363	451.925
450.255	622.244
453.148	749.792
456.041	1061.67
458.934	1333.82
461.826	1528.55
464.719	1852.52
467.612	1950.92
470.504	1969.4
473.397	1759.25
476.29	1493.28
479.182	1152.58
482.075	889.044
484.968	622.848
487.861	416.864
490.753	249.557
493.646	230.709
496.539	92.5249
499.431	164.248
502.324	177.407
505.217	139.553
508.109	86.1118
511.002	159.888
513.895	150.609
516.788	350.846
519.68	210.235
522.573	141.809
525.466	223.02
528.358	237.031
531.251	244.468
534.144	205.252
537.036	278.769
539.929	324.055
542.822	410.365
545.715	472.587
548.607	530.434
551.5	627.877
554.393	667.199
557.285	595.047
560.178	861.967
563.071	621.094
565.963	701.854
568.856	739.476
571.749	895.696
574.641	1011.49
577.534	1150.5
580.427	1032.99
583.32	944.587
586.212	770.102
589.105	616.731
591.998	607.167
594.89	487.83
597.783	426.291
600.676	353.506
603.568	287.048
606.461	164.525
609.354	102.37
612.247	76.4756
615.139	15.0908
618.032	7.90479
620.925	45.6484
623.817	4.47021
626.71	0.624268
629.603	56.0513
632.495	3.79248
635.388	2.052
638.281	42.4336
641.174	144.436
644.066	24.6445
646.959	83.7832
649.852	126.096
652.744	140.711
655.637	130.628
658.53	139.605
661.423	234.009
664.315	280.589
667.208	366.994
670.101	500.25
672.993	680.073
675.886	852.471
678.779	1102.55
681.671	1394.44
684.564	1700.9
687.457	1943.05
690.35	1927.03
693.242	1648.57
696.135	1337.12
699.028	916.136
701.92	755.095
704.813	489.693
707.706	342.486
710.598	273.083
713.491	228.042
716.384	190.764
719.277	162.53
722.169	161.466
725.062	107.61
727.955	98.1763
730.847	108.143
733.74	81.0908
736.633	99.2151
739.525	62.5669
742.418	36.4297
745.311	18.1113
748.204	6.62451
751.096	22.0303
753.989	20.4236
756.882	36.2212
759.774	4.79956
762.667	25.9988
765.56	40.5862
768.452	48.6382
771.345	23.0305
774.238	12.7747
777.131	15.3372
780.023	25.4016
782.916	66.4382
785.809	0.027588
788.701	99.9482
791.594	65.7617
794.487	123.479
797.38	176.812
800.272	246.281
803.165	311.467
806.058	325.822
808.95	402.165
811.843	358.659
814.736	396.6
817.628	313.112
820.521	355.044
823.414	357.374
826.307	409.303
829.199	519.893
832.092	613.743
834.985	675.758
837.877	872.631
840.77	1006.88
843.663	1072.84
846.555	1094.88
849.448	1118.13
852.341	1112.94
855.233	1090.01
858.126	1073.29
861.019	1011.28
863.912	911.848
866.804	849.9
869.697	679.786
872.59	539.727
875.482	411.912
878.375	310.492
881.268	224.609
884.16	168.243
887.053	98.2026
889.946	71.2644
892.838	35.8757
895.731	2.97168
898.624	42.1843
901.517	3.09668
904.409	6.29565
907.302	14.592
910.195	19.4741
913.087	0.336914
915.98	36.7454
918.873	37.1101
921.765	84.0772
924.658	123.323
927.551	194.391
930.444	247.846
933.336	258.5
936.229	323.582
939.122	374.34
942.014	326.536
944.907	375.222
947.8	426.438
950.692	466.871
953.585	430.105
956.478	454.972
959.371	431.986
962.263	405.91
965.156	333.402
968.049	287.143
970.941	233.137
973.834	245.245
976.727	202.208
979.62	212.181
982.512	173.452
985.405	147.908
988.298	144.483
991.19	152.452
994.083	130.589
996.976	84.6799
999.868	92.0398
1002.76	77.4522
1005.65	74.3406
1008.55	67.0867
1011.44	20.7935
1014.33	23.1892
1017.23	27.7986
1020.12	45.3674
1023.01	71.4683
1025.9	61.6687
1028.8	59.1316
1031.69	50.0806
1034.58	68.5969
1037.47	80.6592
1040.37	62.4919
1043.26	56.9966
1046.15	55.249
1049.04	20.7402
1051.94	39.8145
1054.83	10.7873
1057.72	4.43823
1060.62	3.00293
1063.51	22.3899
1066.4	12.4739
1069.29	21.0051
1072.19	5.72217
1075.08	25.6753
1077.97	5.95898
1080.86	20.6035
1083.76	48.9089
1086.65	39.8755
1089.54	62.5286
1092.43	72.9226
1095.33	72.2983
1098.22	62.821
1101.11	93.7122
1104.01	97.5322
1106.9	142.174
1109.79	103.636
1112.68	114.762
1115.58	170.687
1118.47	153.618
1121.36	114.359
1124.26	102.497
1127.15	100.381
1130.04	105.795
1132.93	113.659
1135.83	106.392
1138.72	83.2656
1141.61	69.3411
1144.5	42.1816
1147.4	71.3166
1150.29	58.9392
1153.18	29.783
1156.07	56.3408
1158.97	30.4477
1161.86	55.9517
1164.75	63.408
1167.64	26.5259
1170.54	47.0847
1173.43	70.0273
1176.32	44.9504
1179.22	76.2085
1182.11	33.0935
1185	70.5935
1187.89	32.3442
1190.79	13.9907
1193.68	29.5588
1196.57	62.1829
1199.46	48.4985
1202.36	2.64697
1205.25	38.6594
1208.14	66.9517
1211.04	34.1685
1213.93	67.8794
1216.82	93.5515
1219.71	50.7935
1222.61	83.9138
1225.5	23.2019
1228.39	11.343
1231.28	41.0352
1234.18	48.9988
1237.07	40.4477
1239.96	1.12817
1242.86	42.6099
