Measurement: Raman, 780 nm, unoriented, Raman Data Processed
Mineral: Junitoite
Rruff sample: R050154
Ideal chemistry: CaZn^2+^_2_Si_2_O_7_H_2_O
Locality: Christmas mine, Christmas, Gila County, Arizona, USA
Source: Jim McGlasson
Description: Colorless thin hexagonal crystals and platy purple aggregates
Raman shift (cm-1)	intensity
96.4247	0
99.7995	124.361
103.174	9.48047
106.549	47.4375
109.924	134.961
113.299	199.678
116.674	264.014
120.048	337.815
123.423	401.785
126.798	89.5195
130.173	63.0332
133.548	16.9375
136.923	87.5391
140.297	58.0449
143.672	71.9394
147.047	141.215
150.422	150.853
153.797	118.648
157.171	115.603
160.546	132.205
163.921	105.978
167.296	101.398
170.671	63.373
174.046	86.7168
177.42	100.357
180.795	59.457
184.17	98.8223
187.545	40.2383
190.92	74.8418
194.294	75.6465
197.669	56.2773
201.044	19.6426
204.419	12.7227
207.794	87.7578
211.168	54.9629
214.543	48.8867
217.918	77.1231
221.293	106.986
224.668	101.785
228.042	129.973
231.417	217.44
234.792	400.58
238.167	746.912
241.542	732.213
244.917	432.44
248.291	226.971
251.666	109.055
255.041	33.1074
258.416	36.3438
261.791	33.0918
265.166	11.8867
268.54	35.5449
271.915	30.3945
275.29	20.9258
278.665	1.07617
282.04	31.5762
285.414	12.668
288.789	19.207
292.164	89.666
295.539	151.398
298.914	288.922
302.288	438.935
305.663	726.277
309.038	382.764
312.413	132.688
315.788	140.992
319.163	109.453
322.537	122.156
325.912	156.053
329.287	176.81
332.662	170.19
336.037	268.922
339.411	361.051
342.786	604.582
346.161	1047.41
349.536	1713.5
352.911	1629.52
356.286	843.867
359.66	408.34
363.035	185.357
366.41	104.312
369.785	103.01
373.16	79.5996
376.534	32.4648
379.909	4.83789
383.284	12.0332
386.659	4.42383
390.034	4.49414
393.409	5.16211
396.783	0.253906
400.158	17.5762
403.533	32.3379
406.908	48.4727
410.283	48.791
413.658	81.2402
417.032	112.852
420.407	191.111
423.782	168.275
427.157	149.568
430.532	167.522
433.906	194.246
437.281	216.301
440.656	184.422
444.031	243.387
447.406	212.981
450.781	170.697
454.155	180.773
457.53	205.15
460.905	218.648
464.28	254.025
467.654	192.084
471.029	173.596
474.404	188.842
477.779	120.615
481.154	103.924
484.529	99.1406
487.903	88.6231
491.278	87.3984
494.653	92.4531
498.028	81.2695
501.403	60.2441
504.777	100.088
508.152	92.8848
511.527	80.6387
514.902	99.1934
518.277	47.3906
521.652	15.9941
525.026	9.53906
528.401	15.7598
531.776	27.2949
535.151	25.873
538.526	7.03711
541.9	1.64648
545.275	26.041
548.65	8.22266
552.025	1.33984
555.4	19.9082
558.775	22.3574
562.149	33.375
565.524	23.4316
568.899	42.0137
572.274	39.7188
575.649	14.1895
579.024	45.5117
582.398	76.8203
585.773	115.856
589.148	128.998
592.523	151.246
595.898	181.029
599.272	127.859
602.647	162.592
606.022	122.684
609.397	128.879
612.772	124.971
616.146	117.695
619.521	79.5762
622.896	85.6367
626.271	83.6269
629.646	86.8711
633.021	117.109
636.395	72.4356
639.77	96.9434
643.145	32.166
646.52	71.3594
649.895	80.5859
653.269	43.3027
656.644	30.2539
660.019	60.2695
663.394	14.8633
666.769	1.47852
670.144	2.44531
673.518	20.1211
676.893	36.7559
680.268	67.3281
683.643	19.2188
687.018	54.6465
690.393	33.7148
693.767	123.699
697.142	176.207
700.517	309.092
703.892	438.043
707.266	638.875
710.641	818.541
714.016	818.189
717.391	617.883
720.766	421.815
724.141	253.387
727.515	176.732
730.89	198.443
734.265	130.047
737.64	111.15
741.015	57.5352
744.389	20.6602
747.764	36.8809
751.139	56.9043
754.514	12.5195
757.889	52.9727
761.264	54.9121
764.638	26.5352
768.013	30.1387
771.388	13.4668
774.763	11.293
778.138	14.582
781.513	28.3164
784.887	31.4727
788.262	1.43359
791.637	140.586
795.012	143.272
798.387	96.7305
801.761	31.4863
805.136	36.8613
808.511	102.221
811.886	66.168
815.261	72.4258
818.635	141.877
822.01	132.504
825.385	83.7148
828.76	100.93
832.135	86.6562
835.51	113.453
838.884	88.2637
842.259	67.8106
845.634	23.0195
849.009	27.9922
852.384	61.2324
855.759	68.9082
859.133	71.0059
862.508	64.5566
865.883	4.58594
869.258	5.9043
872.633	48.3438
876.007	65.9023
879.382	6.83398
882.757	8.77734
886.132	76.1269
889.507	17.7324
892.881	70.8203
896.256	65.7188
899.631	227.008
903.006	407.453
906.381	601.578
909.756	551.033
913.13	448.684
916.505	391.227
919.88	320.299
923.255	195.799
926.63	156.049
930.005	164.014
933.379	237.584
936.754	267.273
940.129	298.912
943.504	180.631
946.879	93.7207
950.253	81.3106
953.628	81.2383
957.003	74.5664
960.378	77.3828
963.753	29.1191
967.127	45.125
970.502	15.5918
973.877	10.3301
977.252	10.6914
980.627	55.2324
984.001	119.688
987.376	75.3262
990.751	133.344
994.126	89.2481
997.501	86.5156
1000.88	61.748
1004.25	65.1562
1007.62	50.3105
1011	92.0606
1014.38	139.871
1017.75	172.938
1021.12	103.912
1024.5	75.2734
1027.87	85.0195
1031.25	105.436
1034.62	159.9
1038	220.769
1041.37	101.877
1044.75	81.2852
1048.12	23.5059
1051.5	12.3125
1054.87	87
1058.25	90.1191
1061.62	111.969
1065	172.883
1068.37	160.812
1071.75	174.66
1075.12	198.234
1078.5	129.057
1081.87	160.258
1085.25	134.154
1088.62	183.822
1092	132.971
1095.37	126.385
1098.74	47.3828
1102.12	74.8066
1105.49	46.1445
1108.87	178.666
1112.24	15.9336
1115.62	3.34375
1118.99	16.668
1122.37	36.6738
1125.74	1.10938
1129.12	24.9121
1132.49	115.795
1135.87	198.99
1139.24	163.106
1142.62	194.775
1145.99	232.84
1149.37	286.656
1152.74	268.285
1156.12	278.379
1159.49	293.051
1162.87	398.082
1166.24	424.262
1169.62	568.516
1172.99	539.117
1176.37	572.715
1179.74	556.82
1183.12	432.434
1186.49	399.848
1189.87	453.949
1193.24	382.824
1196.62	392.078
1199.99	334.019
1203.37	295
1206.74	277.512
1210.11	255.641
1213.49	321.719
1216.86	337.5
1220.24	248.695
1223.61	242.703
1226.99	222.312
1230.36	148.988
1233.74	197.426
1237.11	56.8008
1240.49	18.6562
1243.86	1.77734
1247.24	88.4375
1250.61	9.625
1253.99	4.80078
1257.36	131.586
1260.74	193.434
1264.11	211.879
1267.49	174.293
1270.86	78.0234
1274.24	84.4023
1277.61	186.32
1280.98	7.34766
1284.36	82.4414
