Measurement: Raman, 780 nm, unoriented, Raman Data Processed
Mineral: Juonniite
Rruff sample: R070732
Ideal chemistry: CaMgSc^3+^(P^5+^O_4_)_2_(OH)4H_2_O
Locality: Zheleznyi Mine (Iron Mine), Kovdor Massif, Kola Peninsula, Murmanskaja Oblast', Northern Region, Russia
Source: Michael Scott
Description: Spherical aggregates of brown platy and curved crystals associated with dolomite.
Raman shift (cm-1)	intensity
165.619	0
168.511	0.367935
171.404	1.86571
174.297	0.947021
177.189	1.96272
180.082	1.34473
182.975	0.585541
185.868	3.08308
188.76	2.92194
191.653	3.37718
194.546	2.47226
197.438	4.40425
200.331	3.98563
203.224	3.93158
206.117	4.6337
209.009	3.72395
211.902	4.39148
214.795	2.914
217.687	3.92915
220.58	4.73334
223.473	3.33154
226.365	2.64269
229.258	2.28858
232.151	2.45601
235.043	2.39317
237.936	2.4138
240.829	1.44843
243.722	1.50008
246.614	1.34892
249.507	0.739258
252.4	0.883682
255.292	1.06535
258.185	1.09128
261.078	0.031174
263.971	1.75809
266.863	1.6339
269.756	2.16582
272.649	3.39774
275.541	2.43475
278.434	2.32838
281.327	3.23623
284.219	2.44686
287.112	2.02745
290.005	1.92485
292.897	0.014442
295.79	2.04546
298.683	1.10902
301.576	1.49086
304.468	1.13769
307.361	1.17239
310.254	2.14296
313.146	3.16415
316.039	3.22163
318.932	4.68649
321.825	5.09403
324.717	5.60422
327.61	5.446
330.503	5.52655
333.395	5.58021
336.288	5.68582
339.181	6.46941
342.074	4.68425
344.966	3.39964
347.859	2.37913
350.752	1.37521
353.644	0.044075
356.537	0.046089
359.43	0.107719
362.322	0.608253
365.215	0.127525
368.108	1.16555
371	0.333725
373.893	0.633873
376.786	0.468933
379.679	0.110863
382.571	0.666466
385.464	0.02951
388.357	1.15884
391.249	1.82994
394.142	1.71815
397.035	1.42583
399.928	2.45742
402.82	1.90483
405.713	3.23059
408.606	3.44903
411.498	3.99437
414.391	5.33678
417.284	6.88139
420.176	7.85017
423.069	8.37146
425.962	8.81638
428.854	9.12727
431.747	9.82075
434.64	8.94939
437.533	9.65776
440.425	9.92859
443.318	8.96588
446.211	9.03526
449.103	7.50833
451.996	9.18563
454.889	8.90999
457.781	8.06316
460.674	9.2171
463.567	8.50371
466.46	8.5833
469.352	8.98093
472.245	7.71813
475.138	7.59396
478.031	6.43184
480.923	5.1911
483.816	5.81836
486.709	3.70673
489.601	4.03811
492.494	2.05816
495.387	2.45418
498.279	2.00146
501.172	1.79628
504.065	1.26388
506.957	0.477493
509.85	0.745522
512.743	0.420189
515.636	0.059685
518.528	0.353073
521.421	0.111931
524.314	0.137871
527.206	0.714195
530.099	0.593811
532.992	1.12786
535.885	0.286987
538.777	0.202057
541.67	1.48309
544.563	0.849861
547.455	1.90498
550.348	2.01968
553.241	0.645103
556.133	1.04704
559.026	1.99995
561.919	2.42757
564.812	1.71799
567.704	2.21761
570.597	2.34086
573.49	2.48696
576.382	2.96029
579.275	3.39762
582.168	1.91541
585.06	2.85894
587.953	2.59333
590.846	1.41354
593.739	1.76704
596.631	1.28512
599.524	1.96484
602.417	2.84884
605.309	1.84844
608.202	2.52441
611.095	0.265747
613.987	1.4211
616.88	1.34142
619.773	1.71419
622.665	1.27079
625.558	0.865196
628.451	1.28056
631.344	1.77176
634.236	0.992165
637.129	1.91318
640.022	1.49496
642.914	0.753487
645.807	2.16238
648.7	2.03794
651.593	2.18146
654.485	3.44763
657.378	3.44294
660.271	3.78816
663.163	2.59681
666.056	3.3121
668.949	3.09678
671.841	3.40819
674.734	2.52045
677.627	1.98032
680.52	2.53375
683.412	2.49692
686.305	1.56899
689.198	0.576263
692.09	1.54062
694.983	1.18975
697.876	1.12519
700.769	0.635452
703.661	1.01881
706.554	0.950203
709.447	0.495026
712.339	0.166794
715.232	0.548935
718.125	1.12963
721.017	0.893997
723.91	0.868614
726.803	0.543709
729.696	1.95985
732.588	0.288712
735.481	0.367424
738.374	0.14521
741.266	0.840424
744.159	0.338493
747.052	0.099869
749.944	0.530289
752.837	0.308445
755.73	0.805149
758.623	1.3613
761.515	1.12881
764.408	0.79678
767.301	1.3516
770.193	1.08708
773.086	0.853558
775.979	1.96282
778.871	0.372643
781.764	1.16369
784.657	0.599125
787.55	1.24822
790.442	1.18391
793.335	1.41836
796.228	1.12231
799.12	0.758945
802.013	1.70661
804.906	1.33129
807.798	0.365082
810.691	0.787109
813.584	1.11762
816.477	1.50559
819.369	1.26165
822.262	0.812683
825.155	2.18012
828.047	1.13966
830.94	1.77886
833.833	1.7352
836.726	2.23011
839.618	1.97334
842.511	1.49894
845.404	1.62972
848.296	1.31992
851.189	1.57279
854.082	2.50943
856.974	2.07817
859.867	1.29374
862.76	2.00293
865.653	1.09473
868.545	1.30103
871.438	0.539333
874.331	0.673275
877.223	0.221958
880.116	1.25746
883.009	0.205631
885.901	0.05196
888.794	0.206635
891.687	0.542194
894.58	0.181526
897.472	0.34763
900.365	0.548973
903.258	0.553879
906.15	0.175358
909.043	0.083809
911.936	0.618328
914.828	0.670113
917.721	0.186852
920.614	0.185921
923.506	0.449623
926.399	1.44286
929.292	1.04567
932.185	2.11873
935.077	1.95453
937.97	2.55984
940.863	4.47668
943.755	5.44719
946.648	6.92912
949.541	9.47809
952.434	13.0111
955.326	17.8275
958.219	22.5878
961.112	27.4799
964.004	35.8957
966.897	40.0792
969.79	44.4564
972.683	45.5123
975.575	43.743
978.468	36.6832
981.361	29.7857
984.253	24.5191
987.146	19.3273
990.039	16.4606
992.931	13.9247
995.824	12.2151
998.717	11.272
1001.61	9.85523
1004.5	9.3272
1007.39	7.41593
1010.29	6.52911
1013.18	4.88131
1016.07	3.60965
1018.97	2.5426
1021.86	2.22256
1024.75	0.89957
1027.64	1.50947
1030.54	0.216576
1033.43	0.018642
1036.32	0.21759
1039.21	0.706318
1042.11	0.41193
1045	0.469845
1047.89	0.665203
1050.79	0.945553
1053.68	0.741875
1056.57	1.9694
1059.46	0.957932
1062.36	0.499317
1065.25	0.450855
1068.14	1.71476
1071.03	0.044865
1073.93	1.14512
1076.82	1.01934
1079.71	2.26376
1082.61	2.84046
1085.5	3.10417
1088.39	3.12987
1091.28	2.16317
1094.18	2.43299
1097.07	2.55027
1099.96	2.02104
1102.85	1.00196
1105.75	1.312
1108.64	1.35121
1111.53	0.858391
1114.42	0.169205
1117.32	0.572517
1120.21	0.044296
1123.1	0.211536
1126	0.122021
1128.89	0.686657
1131.78	0.167595
1134.67	0.205494
1137.57	0.467129
1140.46	0.416561
1143.35	1.15716
1146.24	1.7649
1149.14	0.911034
1152.03	1.72826
1154.92	1.35462
1157.82	1.91623
1160.71	3.60252
1163.6	2.89269
1166.49	3.80372
1169.39	3.41669
1172.28	3.28855
1175.17	3.65496
1178.06	2.81366
1180.96	2.29687
1183.85	1.91993
1186.74	1.63564
1189.63	2.2322
1192.53	1.36416
1195.42	0.49107
1198.31	0.556278
1201.21	0.456417
1204.1	1.21672
1206.99	0.48278
1209.88	0.892719
1212.78	0.991642
1215.67	0.270859
1218.56	0.991852
1221.45	0.057209
1224.35	0.877048
1227.24	0.352688
1230.13	0.341717
1233.03	1.14136
1235.92	0.777542
1238.81	1.20942
1241.7	0.576347
1244.6	1.1154
1247.49	0.424458
1250.38	0.590897
1253.28	1.45178
1256.17	0.660179
1259.06	0.212353
1261.95	0.609695
1264.85	0.700974
1267.74	0.645966
1270.63	0.758427
1273.52	0.242733
1276.42	0.197746
1279.31	0.004951
1282.2	1.17104
1285.09	1.25789
