Measurement: Raman, 532 nm, unoriented, Raman Data Processed
Mineral: Juonniite
Rruff sample: R070732
Ideal chemistry: CaMgSc^3+^(P^5+^O_4_)_2_(OH)4H_2_O
Locality: Zheleznyi Mine (Iron Mine), Kovdor Massif, Kola Peninsula, Murmanskaja Oblast', Northern Region, Russia
Source: Michael Scott
Description: Spherical aggregates of brown platy and curved crystals associated with dolomite.
Raman shift (cm-1)	intensity
165.254	0
168.147	0.552124
171.039	4.27692
173.932	0.443481
176.825	3.88226
179.717	5.41016
182.61	6.91418
185.503	8.69812
188.395	6.44586
191.288	9.53882
194.181	11.8437
197.073	11.547
199.966	10.7744
202.859	11.9653
205.752	11.6436
208.644	7.37988
211.537	8.45709
214.43	4.9881
217.322	6.05457
220.215	7.6225
223.108	7.99976
226	7.40186
228.893	4.37213
231.786	4.52753
234.679	5.52985
237.571	4.72284
240.464	3.67438
243.357	3.56683
246.249	1.86981
249.142	3.06696
252.035	2.60083
254.928	5.62317
257.82	4.58008
260.713	6.49762
263.606	3.08044
266.498	4.78961
269.391	8.10626
272.284	6.67926
275.176	5.49078
278.069	3.92993
280.962	3.0603
283.854	4.61456
286.747	2.59058
289.64	0.297058
292.533	3.04333
295.425	0.065491
298.318	2.03571
301.211	2.47333
304.103	1.37189
306.996	1.34729
309.889	3.23218
312.781	3.93243
315.674	6.98749
318.567	6.11316
321.46	5.64203
324.352	5.83795
327.245	4.71612
330.138	4.27344
333.03	5.61072
335.923	4.27167
338.816	1.65802
341.709	0.350769
344.601	0.952026
347.494	1.18164
350.387	0.387634
353.279	2.03473
356.172	4.53406
359.065	2.96558
361.957	0.169739
364.85	0.817932
367.743	1.23737
370.635	0.952148
373.528	0.552429
376.421	1.53583
379.314	2.42426
382.206	2.61395
385.099	5.57526
387.992	4.52948
390.884	10.4387
393.777	7.69739
396.67	9.09125
399.562	11.4815
402.455	7.83563
405.348	9.12695
408.241	13.4985
411.133	16.472
414.026	16.2754
416.919	16.8066
419.811	19.2151
422.704	18.5659
425.597	19.0295
428.49	15.8425
431.382	20.214
434.275	22.2043
437.168	16.6488
440.06	23.6646
442.953	21.6461
445.846	20.8345
448.738	22.4797
451.631	20.4332
454.524	22.443
457.416	22.3758
460.309	18.6376
463.202	22.6719
466.095	23.0991
468.987	23.2153
471.88	20.5203
474.773	18.0154
477.665	19.9663
480.558	21.6162
483.451	15.1214
486.344	11.9585
489.236	10.1538
492.129	10.2712
495.022	11.3097
497.914	7.67157
500.807	11.7824
503.7	6.66937
506.592	7.32025
509.485	3.28369
512.378	2.59143
515.27	1.10693
518.163	1.45081
521.056	0.521118
523.949	1.27264
526.841	1.09094
529.734	1.22339
532.627	1.66003
535.519	0.769531
538.412	3.85345
541.305	5.86108
544.197	5.1402
547.09	5.73962
549.983	10.0314
552.876	7.83673
555.768	10.7013
558.661	12.3867
561.554	14.3176
564.446	13.3877
567.339	13.1997
570.232	14.2457
573.125	12.3448
576.017	13.1809
578.91	10.8149
581.803	10.3368
584.695	7.66528
587.588	9.52649
590.481	7.44037
593.373	9.4859
596.266	5.58295
599.159	6.62689
602.052	4.68213
604.944	8.91791
607.837	6.51495
610.73	6.52722
613.622	11.0753
616.515	4.38037
619.408	3.37805
622.3	1.42438
625.193	1.8501
628.086	3.15381
630.979	5.97546
633.871	4.81885
636.764	5.05188
639.657	6.75385
642.549	5.2193
645.442	4.2959
648.335	2.97919
651.227	2.37213
654.12	5.05841
657.013	6.29169
659.905	4.56989
662.798	0.915955
665.691	2.15149
668.584	3.1095
671.476	2.47022
674.369	2.54791
677.262	2.95691
680.154	2.28601
683.047	5.58209
685.94	1.55243
688.832	4.7016
691.725	0.205811
694.618	0.481873
697.511	0.858582
700.403	0.601074
703.296	0.741638
706.189	0.761414
709.081	2.63104
711.974	3.44714
714.867	1.91864
717.76	2.69458
720.652	3.16724
723.545	3.24524
726.438	2.71576
729.33	6.00543
732.223	1.38104
735.116	1.36652
738.008	1.27655
740.901	3.7981
743.794	5.50891
746.687	2.3573
749.579	0.439697
752.472	0.03717
755.365	1.94696
758.257	0.218506
761.15	1.63995
764.043	2.66779
766.935	3.26642
769.828	1.99731
772.721	3.05682
775.614	4.69806
778.506	5.05322
781.399	3.01257
784.292	5.14563
787.184	3.04089
790.077	3.8161
792.97	3.68164
795.862	4.57477
798.755	2.49158
801.648	4.11218
804.54	4.55823
807.433	7.81183
810.326	8.0769
813.219	7.9729
816.111	6.25592
819.004	4.77118
821.897	5.16888
824.789	4.14606
827.682	4.10535
830.575	3.25061
833.467	3.65845
836.36	5.09509
839.253	8.74548
842.146	6.16144
845.038	6.6015
847.931	5.26953
850.824	3.6795
853.716	6.13788
856.609	5.35779
859.502	7.58453
862.394	4.96027
865.287	2.83411
868.18	2.28052
871.073	2.14325
873.965	5.48444
876.858	1.48895
879.751	2.91309
882.643	2.90973
885.536	1.17133
888.429	0.26709
891.322	0.966309
894.214	2.28522
897.107	0.242493
900	0.434082
902.892	1.62482
905.785	1.89282
908.678	0.561523
911.57	1.71899
914.463	2.76276
917.356	2.87347
920.249	4.71143
923.141	6.50604
926.034	10.4049
928.927	7.99347
931.819	7.685
934.712	10.9572
937.605	14.6141
940.497	16.3412
943.39	24.1147
946.283	28.7308
949.176	37.2801
952.068	48.5502
954.961	60.7985
957.854	76.8704
960.746	97.0074
963.639	117.561
966.532	139.416
969.424	156.737
972.317	164.501
975.21	165.918
978.102	158.894
980.995	138.911
983.888	119.377
986.781	100.546
989.673	81.4144
992.566	71.8776
995.459	61.8242
998.351	52.4058
1001.24	48.2399
1004.14	37.2205
1007.03	33.9008
1009.92	31.1477
1012.82	24.4127
1015.71	16.583
1018.6	11.6611
1021.49	10.3756
1024.39	9.4353
1027.28	5.70288
1030.17	2.57568
1033.06	0.036621
1035.96	0.276855
1038.85	2.20862
1041.74	0.42981
1044.63	2.83069
1047.53	3.74426
1050.42	2.1731
1053.31	2.8667
1056.2	0.611938
1059.1	3.1886
1061.99	2.67468
1064.88	2.80737
1067.78	3.98926
1070.67	6.16431
1073.56	1.255
1076.45	8.38428
1079.35	6.87146
1082.24	10.2561
1085.13	10.1659
1088.03	5.85339
1090.92	6.3158
1093.81	8.35889
1096.7	7.93066
1099.6	9.28809
1102.49	9.70264
1105.38	7.59033
1108.27	1.30115
1111.17	3.72107
1114.06	0.283447
1116.95	0.447754
1119.85	2.43506
1122.74	2.32288
1125.63	0.202271
1128.52	2.36719
1131.42	0.691528
1134.31	3.03394
1137.2	3.67749
1140.09	2.81555
1142.99	1.41186
1145.88	0.385986
1148.77	1.70422
1151.66	1.80127
1154.56	7.64294
1157.45	9.60547
1160.34	5.82996
1163.23	6.8158
1166.13	6.73279
1169.02	5.95093
1171.91	6.34741
1174.81	8.35327
1177.7	8.4635
1180.59	8.74927
1183.48	3.71387
1186.38	5.92273
1189.27	3.51367
1192.16	4.85974
1195.06	2.21521
1197.95	5.10352
1200.84	6.19006
1203.73	2.93591
1206.63	0.643555
1209.52	1.40674
1212.41	1.48315
1215.3	5.21545
1218.2	6.04126
1221.09	4.604
1223.98	1.50427
1226.88	6.45252
1229.77	0.859985
1232.66	3.90625
1235.55	0.65686
1238.44	2.68127
1241.34	2.77283
1244.23	1.58057
1247.12	0.213257
1250.02	1.93762
1252.91	0.861938
1255.8	0.357666
1258.69	1.11511
1261.59	2.6366
1264.48	2.36743
1267.37	9.74341
1270.27	5.48315
1273.16	4.5022
1276.05	3.97437
1278.94	4.4115
1281.84	3.32764
1284.73	1.50256
1287.62	2.39209
1290.51	6.41296
1293.41	1.43408
1296.3	0.004883
1299.19	2.90381
1302.09	0.285522
