Measurement: Raman, 532 nm, unoriented, Raman Data Processed
Mineral: Kaersutite
Rruff sample: R070128
Ideal chemistry: NaCa_2_(Mg_3_AlTi^4+^)(Si_6_Al_2_)O_22_O_2_
Locality: Mt Etna, Etna Volcanic Complex, Catania Province, Sicily,  Italy
Source: Michael Scott
Description: Black cleavage fragment with dark-red internal highlites
Measured chemistry: (Na_0.65_K_0.15_[box]_0.20_)_Σ=1_(Ca_1.82_Na_0.18_)_Σ=2_(Mg_2.64_Fe^2+^_1.36_)_Σ=4_(Ti_0.64_Fe^2+^_0.15_Al_0.10_Fe^3+^_0.09_Mn_0.02_)_Σ=1_(Si_5.91_Al_2.09_)_Σ=8_O_22_O(OH); OH assumed by stoichiometry
Raman shift (cm-1)	intensity
137.165	0
140.539	73.0892
143.914	32.0847
147.289	8.1698
150.664	136.757
154.039	152.233
157.413	164.464
160.788	167.522
164.163	181.078
167.538	126.378
170.913	239.277
174.287	186.854
177.662	244.296
181.037	251.35
184.412	217.417
187.787	238.956
191.162	134.788
194.536	159.791
197.911	128.116
201.286	90.9189
204.661	119.141
208.036	120.602
211.411	95.8533
214.785	89.6948
218.16	143.788
221.535	148.832
224.91	112.183
228.285	248.973
231.659	235.258
235.034	276.481
238.409	357.006
241.784	322.934
245.159	277.623
248.534	283.578
251.908	207.092
255.283	145.299
258.658	81.4905
262.033	13.2144
265.408	7.71021
268.782	25.6853
272.157	9.53882
275.532	15.936
278.907	28.5205
282.282	29.2693
285.656	12.9866
289.031	22.2981
292.406	37.8911
295.781	41.374
299.156	5.70117
302.531	43.6619
305.905	18.4878
309.28	22.689
312.655	48.8069
316.03	63.7163
319.405	114.881
322.779	93.8733
326.154	120.336
329.529	75.3381
332.904	114.882
336.279	145.325
339.654	148.489
343.028	173.417
346.403	189.445
349.778	222.285
353.153	205.589
356.528	271.839
359.902	213.273
363.277	205.041
366.652	165.894
370.027	193.179
373.402	181.565
376.777	155.709
380.151	109.806
383.526	192.776
386.901	156.922
390.276	163.383
393.651	125.619
397.026	157.753
400.4	128.304
403.775	133.633
407.15	97.561
410.525	141.914
413.9	117.475
417.274	117.561
420.649	143.338
424.024	52.9844
427.399	70.114
430.774	100.555
434.149	51.9602
437.523	13.2544
440.898	9.85156
444.273	35.8892
447.648	60.1533
451.023	64.9016
454.397	34.1895
457.772	17.231
461.147	12.7507
464.522	56.0088
467.897	46.4355
471.272	66.2625
474.646	134.805
478.021	68.1726
481.396	57.4241
484.771	133.517
488.146	131.353
491.52	100.364
494.895	151.989
498.27	218.865
501.645	277.969
505.02	275.796
508.394	311.87
511.769	270.899
515.144	246.145
518.519	194.095
521.894	234.711
525.269	272.949
528.643	327.625
532.018	388.388
535.393	361.29
538.768	396.407
542.143	385.506
545.518	377.728
548.892	497.723
552.267	512.295
555.642	526.581
559.017	643.402
562.392	727.158
565.766	703.3
569.141	775.553
572.516	846.931
575.891	930.081
579.266	870.263
582.64	950.178
586.015	903.657
589.39	844.444
592.765	798.666
596.14	749.523
599.515	607.671
602.889	500.195
606.264	427.46
609.639	358.738
613.014	318.188
616.389	166.789
619.764	77.8791
623.138	85.501
626.513	44.4761
629.888	2.83545
633.263	54.2366
636.638	85.6746
640.013	40.8452
643.387	12.6448
646.762	49.9346
650.137	70.8169
653.512	103.123
656.886	183.409
660.261	172.151
663.636	210.816
667.011	271.791
670.386	266.933
673.761	156.477
677.135	134.647
680.51	131.138
683.885	135.532
687.26	117.724
690.635	80.3267
694.01	39.3328
697.384	6.53418
700.759	5.46582
704.134	6.854
707.509	9.87915
710.884	42.7283
714.258	37.3738
717.633	60.9558
721.008	140.372
724.383	161.803
727.758	248.706
731.133	335.519
734.507	395.579
737.882	530.106
741.257	585.402
744.632	645.452
748.007	738.515
751.381	759.789
754.756	847.849
758.131	863.457
761.506	867.989
764.881	854.805
768.256	837.974
771.63	813.926
775.005	831.363
778.38	794.715
781.755	814.367
785.13	771.037
788.505	680.785
791.879	592.649
795.254	571.515
798.629	506.111
802.004	389.226
805.379	306.665
808.753	294.703
812.128	170.653
815.503	129.336
818.878	80.2006
822.253	51.2765
825.627	44.7753
829.002	5.87024
832.377	26.5615
835.752	9.84058
839.127	18.1642
842.501	37.9877
845.876	23.7787
849.251	7.96082
852.626	28.3635
856.001	62.741
859.376	92.7662
862.75	73.0735
866.125	88.7092
869.5	146.455
872.875	156.584
876.25	174.118
879.625	177.727
882.999	160.729
886.374	245.91
889.749	201.263
893.124	239.611
896.499	143.065
899.874	144.887
903.248	112.618
906.623	135.578
909.998	73.5378
913.373	33.8674
916.748	50.6338
920.122	51.1663
923.497	3.10413
926.872	6.97363
930.247	30.5909
933.622	51.3035
936.996	8.76599
940.371	15.5491
943.746	8.04297
947.121	54.6569
950.496	21.4586
953.87	14.49
957.245	54.401
960.62	47.599
963.995	61.2004
967.37	63.2715
970.745	67.4772
974.119	95.786
977.494	40.0426
980.869	60.7537
984.244	33.4984
987.619	44.235
990.994	10.2614
994.368	72.4183
997.743	50.974
1001.12	7.81848
1004.49	32.4182
1007.87	60.6274
1011.24	141.065
1014.62	65.9951
1017.99	52.0109
1021.37	82.6934
1024.74	85.5795
1028.12	99.6677
1031.49	85.3776
1034.87	97.4719
1038.24	81.5276
1041.62	94.3687
1044.99	49.7579
1048.37	97.8842
1051.74	77.3303
1055.12	103.667
1058.49	76.2034
1061.87	160.521
1065.24	88.3666
1068.61	98.7631
1071.99	93.5045
1075.36	126.013
1078.74	119.101
1082.11	150.805
1085.49	84.8097
1088.86	101.838
1092.24	48.0147
1095.61	69.0718
1098.99	49.7372
1102.36	62.1639
1105.74	26.6914
1109.11	54.5759
1112.49	41.8677
1115.86	34.7393
1119.24	13.8168
1122.61	4.01111
1125.99	66.7916
1129.36	0.723877
1132.74	4.80298
1136.11	98.0102
1139.49	50.9319
1142.86	94.8307
1146.23	83.2167
1149.61	63.0321
1152.98	38.3533
1156.36	72.6007
1159.73	101.621
1163.11	63.4888
1166.48	74.0137
1169.86	127.508
1173.23	83.21
1176.61	77.7313
1179.98	88.1123
1183.36	35.4386
1186.73	53.8049
1190.11	18.8618
1193.48	70.7539
1196.86	78.2048
1200.23	104.016
1203.61	73.028
1206.98	97.0841
1210.36	99.2556
1213.73	109.957
1217.11	101.75
1220.48	64.8811
1223.86	63.4703
1227.23	46.3197
1230.61	44.2145
1233.98	103.12
1237.36	37.8639
1240.73	33.2244
1244.11	64.848
1247.48	50.6065
1250.86	92.0566
1254.23	49.3565
1257.6	3.49207
1260.98	57.7537
1264.35	2.08032
1267.73	30.1741
1271.1	25.7111
1274.48	4.8971
1277.85	36.3442
1281.23	48.931
1284.6	1.27564
1287.98	57.2345
1291.35	81.7535
1294.73	55.1927
1298.1	84.8424
1301.48	34.3436
1304.85	41.9285
