Measurement: Raman, 532 nm, unoriented, Raman Data Processed
Mineral: Kaersutite
Rruff sample: R141092
Ideal chemistry: NaCa_2_(Mg_3_AlTi^4+^)(Si_6_Al_2_)O_22_O_2_
Locality: Rothenberg, Bell, Eifel, Germany
Source: Ch. and H. Sch√§fer
Description: Rusty brown blades embedded in matrix
Raman shift (cm-1)	intensity
109.068	0
112.443	0.822548
115.817	2.48545
119.192	3.66818
122.567	2.07909
125.942	2.32587
129.317	3.88425
132.692	4.34183
136.066	5.24514
139.441	7.81708
142.816	5.89313
146.191	3.72917
149.566	2.18851
152.94	1.3819
156.315	1.34341
159.69	1.17529
163.065	1.68972
166.44	1.43697
169.815	2.2439
173.189	2.24136
176.564	1.59426
179.939	1.66186
183.314	2.23033
186.689	2.93986
190.064	4.20614
193.438	3.41605
196.813	3.57956
200.188	4.36682
203.563	4.35987
206.938	4.19269
210.312	5.84483
213.687	6.9821
217.062	7.96914
220.437	7.62529
223.812	7.784
227.186	7.20477
230.561	5.39751
233.936	4.11118
237.311	1.66806
240.686	2.23449
244.06	1.32846
247.435	1.02878
250.81	0.814869
254.185	0.546696
257.56	0.673492
260.935	0.003551
264.309	1.30828
267.684	0.756989
271.059	0.753941
274.434	0.193478
277.809	0.153572
281.183	0.749329
284.558	2.50652
287.933	3.25987
291.308	3.84884
294.683	5.12209
298.058	5.47741
301.432	6.52076
304.807	6.04667
308.182	8.53604
311.557	9.3742
314.932	11.3252
318.307	13.3389
321.681	13.9705
325.056	15.1317
328.431	14.671
331.806	14.7788
335.181	14.4178
338.555	12.6517
341.93	12.2878
345.305	12.1099
348.68	13.0846
352.055	11.9518
355.43	11.3034
358.804	10.4409
362.179	9.46268
365.554	8.54519
368.929	6.71124
372.304	8.31078
375.678	9.13479
379.053	11.9755
382.428	15.5165
385.803	20.452
389.178	21.0266
392.553	22.0972
395.927	18.8469
399.302	14.2727
402.677	10.8642
406.052	9.48433
409.427	8.49132
412.801	7.35656
416.176	6.975
419.551	6.64104
422.926	5.57793
426.301	3.81503
429.675	3.19523
433.05	1.45694
436.425	0.42683
439.8	0.117912
443.175	0.982201
446.55	1.30723
449.924	1.13692
453.299	1.58506
456.674	0.124817
460.049	0.911861
463.424	1.59277
466.798	3.0628
470.173	3.69799
473.548	3.37822
476.923	4.00062
480.298	5.00741
483.673	6.55585
487.047	8.3623
490.422	9.34116
493.797	11.1317
497.172	11.6242
500.547	10.9016
503.921	11.7056
507.296	11.209
510.671	10.5906
514.046	8.40891
517.421	9.18182
520.795	10.2148
524.17	10.9049
527.545	11.3509
530.92	12.0702
534.295	9.76098
537.67	10.6046
541.044	8.36294
544.419	7.22134
547.794	7.45956
551.169	6.44111
554.544	5.2765
557.918	3.57259
561.293	4.70746
564.668	4.11555
568.043	4.88467
571.418	2.85394
574.793	1.83159
578.167	1.57377
581.542	1.14493
584.917	0.388306
588.292	0.985573
591.667	0.158798
595.042	0.682529
598.416	0.197952
601.791	0.620766
605.166	0.306454
608.541	0.657478
611.916	0.463741
615.29	0.082989
618.665	0.068008
622.04	1.20907
625.415	2.12413
628.79	1.77504
632.164	2.48673
635.539	3.10098
638.914	4.26217
642.289	5.52782
645.664	8.71233
649.039	12.7418
652.413	16.3786
655.788	22.0438
659.163	29.0955
662.538	33.1214
665.913	35.8791
669.288	31.8944
672.662	24.0867
676.037	17.7838
679.412	11.8791
682.787	10.3385
686.162	7.23189
689.536	6.34119
692.911	4.08487
696.286	3.2807
699.661	3.97877
703.036	2.90608
706.41	3.74725
709.785	2.62004
713.16	3.96734
716.535	1.93987
719.91	1.63414
723.284	0.416771
726.659	0.398327
730.034	0.289268
733.409	0.573715
736.784	0.017887
740.159	0.197536
743.533	0.572514
746.908	0.607059
750.283	2.11833
753.658	2.35933
757.033	2.36564
760.408	2.78846
763.782	3.18381
767.157	3.84684
770.532	4.28466
773.907	4.14425
777.282	3.33492
780.656	2.81564
784.031	3.65202
787.406	2.24844
790.781	2.42247
794.156	1.49779
797.53	0.33041
800.905	1.33681
804.28	1.72468
807.655	2.65305
811.03	2.26157
814.405	1.47304
817.779	2.94715
821.154	2.25892
824.529	2.37247
827.904	0.569294
831.279	1.44871
834.654	0.145844
838.028	0.618431
841.403	0.726269
844.778	0.674606
848.153	1.20996
851.528	1.59138
854.902	1.54706
858.277	3.5769
861.652	2.3916
865.027	4.05276
868.402	1.56139
871.777	2.76026
875.151	2.32249
878.526	2.03845
881.901	2.21638
885.276	1.90452
888.651	1.13164
892.025	1.07858
895.4	1.49548
898.775	0.831406
902.15	0.284107
905.525	0.344055
908.899	0.657173
912.274	0.281342
915.649	0.157135
919.024	1.15998
922.399	0.973236
925.774	0.230949
929.148	0.932232
932.523	0.862564
935.898	0.659454
939.273	0.624447
942.648	0.49892
946.023	1.70889
949.397	1.57334
952.772	3.27733
956.147	3.18444
959.522	5.65735
962.896	8.05889
966.271	8.33295
969.646	6.0256
973.021	5.49736
976.396	4.64431
979.771	6.39742
983.145	6.67067
986.52	6.8522
989.895	7.76586
993.27	8.98784
996.645	12.1043
1000.02	13.8608
1003.39	15.7722
1006.77	16.2199
1010.14	14.1876
1013.52	11.0724
1016.89	8.34139
1020.27	4.61216
1023.64	3.94893
1027.02	3.39613
1030.39	2.91797
1033.77	2.97587
1037.14	3.034
1040.52	3.75585
1043.89	2.73958
1047.27	2.19703
1050.64	2.34321
1054.02	1.46535
1057.39	1.19375
1060.77	0.596951
1064.14	0.777885
1067.52	0.596771
1070.89	0.19458
1074.27	0.575172
1077.64	0.713676
1081.02	0.85051
1084.39	1.12541
1087.77	0.444073
1091.14	0.667255
1094.51	0.924412
1097.89	0.2094
1101.26	1.31437
1104.64	1.64397
1108.01	0.851524
1111.39	0.836498
1114.76	1.21467
1118.14	1.60568
1121.51	1.69218
1124.89	1.213
1128.26	0.453049
1131.64	0.045502
1135.01	1.31285
1138.39	0.276485
1141.76	0.200417
1145.14	0.434494
1148.51	0.581985
1151.89	0.474226
1155.26	0.64559
1158.64	1.0011
1162.01	0.107252
1165.38	0.596218
1168.76	0.135811
1172.13	0.218319
1175.51	1.61956
1178.88	1.02603
1182.26	1.76188
1185.63	0.733076
1189.01	0.416348
1192.38	1.61088
1195.76	0.747299
1199.13	1.30203
1202.51	1.50363
1205.88	2.08011
1209.26	1.54072
1212.63	1.0971
1216.01	1.85172
1219.38	1.3545
1222.76	0.969286
1226.13	1.04737
1229.51	0.271742
1232.88	1.233
1236.26	1.12562
1239.63	0.640337
1243.01	0.261129
1246.38	1.45867
1249.76	0.057716
1253.13	0.616539
1256.51	0.551216
1259.88	0.586292
1263.26	1.35412
1266.63	0.556561
1270.01	0.951916
1273.38	1.82052
1276.76	0.587425
1280.13	0.631641
1283.5	0.633938
1286.88	0.144772
1290.25	0.510338
1293.63	1.05344
1297	0.698818
1300.38	0.239433
