Measurement: Raman, 785 nm, unoriented, Raman Data Processed
Mineral: Kaersutite
Rruff sample: R070128
Ideal chemistry: NaCa_2_(Mg_3_AlTi^4+^)(Si_6_Al_2_)O_22_O_2_
Locality: Mt Etna, Etna Volcanic Complex, Catania Province, Sicily,  Italy
Source: Michael Scott
Description: Black cleavage fragment with dark-red internal highlites
Measured chemistry: (Na_0.65_K_0.15_[box]_0.20_)_Σ=1_(Ca_1.82_Na_0.18_)_Σ=2_(Mg_2.64_Fe^2+^_1.36_)_Σ=4_(Ti_0.64_Fe^2+^_0.15_Al_0.10_Fe^3+^_0.09_Mn_0.02_)_Σ=1_(Si_5.91_Al_2.09_)_Σ=8_O_22_O(OH); OH assumed by stoichiometry
Raman shift (cm-1)	intensity
159.397	0
162.29	113.262
165.183	66.0704
168.075	95.6305
170.968	114.883
173.861	188.578
176.753	134.828
179.646	192.29
182.539	184.08
185.431	196.59
188.324	194.083
191.217	168.602
194.11	113.944
197.002	161.717
199.895	120.309
202.788	78.7169
205.68	109.534
208.573	39.0301
211.466	27.9945
214.358	7.5387
217.251	21.4344
220.144	20.4363
223.037	67.1958
225.929	108.543
228.822	92.3789
231.715	80.2881
234.607	114.186
237.5	144.095
240.393	173.331
243.286	218.318
246.178	162.221
249.071	178.653
251.964	187.164
254.856	138.29
257.749	71.8344
260.642	62.4988
263.534	1.53638
266.427	3.90613
269.32	20.773
272.212	9.10022
275.105	18.2096
277.998	23.5117
280.891	22.8611
283.783	5.20642
286.676	40.8367
289.569	68.7377
292.461	61.7672
295.354	76.4946
298.247	34.2656
301.139	43.5322
304.032	37.1204
306.925	47.0427
309.818	46.0503
312.71	52.5778
315.603	35.6562
318.496	31.1935
321.388	13.5062
324.281	40.839
327.174	47.5076
330.067	18.6981
332.959	67.8994
335.852	74.6115
338.745	51.6929
341.637	68.5985
344.53	53.4601
347.423	71.2835
350.315	42.6626
353.208	101.52
356.101	86.5638
358.993	114.305
361.886	124.327
364.779	26.3555
367.672	90.0879
370.564	68.9616
373.457	51.4308
376.35	27.7837
379.242	55.9811
382.135	60.6838
385.028	44.7079
387.921	24.7655
390.813	51.3701
393.706	102.016
396.599	0.172729
399.491	2.99902
402.384	41.3937
405.277	65.5312
408.169	20.6885
411.062	21.148
413.955	87.8213
416.848	75.5444
419.74	64.8768
422.633	53.4528
425.526	97.6693
428.418	113.685
431.311	64.7905
434.204	62.3082
437.096	106.437
439.989	56.0676
442.882	80.3608
445.774	34.568
448.667	41.2689
451.56	28.4016
454.452	18.1562
457.345	13.667
460.238	17.3396
463.131	15.2529
466.023	26.8888
468.916	26.398
471.809	11.4325
474.701	18.9021
477.594	3.68652
480.487	5.26502
483.38	30.5311
486.272	27.0942
489.165	74.4882
492.058	141.261
494.95	140.093
497.843	186.771
500.736	225.228
503.628	266.158
506.521	320.943
509.414	335.14
512.307	357.598
515.199	358.853
518.092	309.361
520.985	344.027
523.877	364.618
526.77	373.307
529.663	418.269
532.555	406.826
535.448	427.51
538.341	458.563
541.234	378.867
544.126	384.673
547.019	452.842
549.912	423.581
552.804	451.163
555.697	431.834
558.59	396.455
561.482	381.745
564.375	366.99
567.268	319.55
570.16	327.824
573.053	327.269
575.946	279.655
578.839	328.474
581.731	321.158
584.624	299.383
587.517	319.478
590.409	306.338
593.302	320.759
596.195	324.995
599.087	285.135
601.98	225.104
604.873	183.764
607.766	158.786
610.658	115.701
613.551	125.863
616.444	149.375
619.336	111.222
622.229	56.9928
625.122	12.2328
628.014	31.4702
630.907	3.14026
633.8	4.49219
636.693	31.5973
639.585	32.6598
642.478	30.1486
645.371	38.7642
648.263	0.073486
651.156	10.1668
654.049	46.1921
656.942	89.0371
659.834	80.1652
662.727	71.0071
665.62	108.034
668.512	153.469
671.405	139.018
674.298	126.947
677.19	111.296
680.083	81.9799
682.976	97.9423
685.869	61.3951
688.761	82.1093
691.654	52.6843
694.547	41.203
697.439	44.4686
700.332	44.2878
703.225	12.8254
706.117	10.0404
709.01	1.59705
711.903	23.0702
714.795	0.926025
717.688	14.1071
720.581	64.036
723.474	43.3568
726.366	84.8533
729.259	98.7195
732.152	184.393
735.044	175.71
737.937	185.846
740.83	205.12
743.722	239.422
746.615	289.044
749.508	309.922
752.401	286.649
755.293	315.176
758.186	349.374
761.079	353.124
763.971	369.73
766.864	350.906
769.757	335.024
772.649	352.575
775.542	365.734
778.435	320.971
781.328	285.355
784.22	356.349
787.113	306.055
790.006	262.969
792.898	254.797
795.791	178.522
798.684	202.156
801.576	152.112
804.469	118.985
807.362	81.939
810.255	98.8463
813.147	60.6216
816.04	49.7117
818.933	30.9059
821.825	28.5239
824.718	7.62183
827.611	9.93298
830.503	4.92712
833.396	4.92188
836.289	24.0931
839.182	1.97351
842.074	53.0858
844.967	6.15845
847.86	65.8709
850.752	39.5796
853.645	10.3811
856.538	11.3898
859.43	11.0655
862.323	20.5165
865.216	5.8595
868.109	4.87659
871.001	1.87097
873.894	61.141
876.787	37.8826
879.679	42.4883
882.572	50.1841
885.465	72.4354
888.357	90.8633
891.25	44.5442
894.143	66.0193
897.035	73.589
899.928	42.486
902.821	78.7781
905.714	45.562
908.606	49.2771
911.499	25.8198
914.392	63.3451
917.284	10.1321
920.177	4.71057
923.07	34.1252
925.962	15.4076
928.855	22.403
931.748	47.3396
934.641	12.2881
937.533	26.045
940.426	64.1754
943.319	17.2379
946.211	38.1931
949.104	42.4362
951.997	33.6935
954.889	61.3369
957.782	29.668
960.675	4.47937
963.568	25.4579
966.46	39.8543
969.353	51.3444
972.246	66.7575
975.138	50.9088
978.031	26.9246
980.924	10.262
983.817	43.6517
986.709	43.2418
989.602	47.5536
992.495	24.2266
995.387	3.40796
998.28	29.2423
1001.17	44.1052
1004.07	55.9033
1006.96	53.1672
1009.85	41.6493
1012.74	11.035
1015.64	34.3865
1018.53	78.6339
1021.42	41.5675
1024.31	86.9714
1027.21	12.7832
1030.1	26.6559
1032.99	43.0725
1035.88	10.8008
1038.78	36.2273
1041.67	20.4205
1044.56	6.78467
1047.46	33.6812
1050.35	60.9327
1053.24	9.46851
1056.13	36.2492
1059.03	39.2833
1061.92	25.3278
1064.81	6.24854
1067.7	65.5734
1070.6	78.0745
1073.49	49.7217
1076.38	60.08
1079.28	53.0388
1082.17	86.574
1085.06	92.0228
1087.95	69.5165
1090.85	26.0546
1093.74	25.8219
1096.63	30.9355
1099.52	27.3806
1102.42	47.8486
1105.31	42.3722
1108.2	4.88061
1111.1	8.28052
1113.99	29.3877
1116.88	5.60504
1119.77	2.01135
1122.67	2.13666
1125.56	13.4373
1128.45	21.2811
1131.34	25.6238
1134.24	1.08173
1137.13	7.02588
1140.02	25.6958
1142.91	21.7237
1145.81	19.91
1148.7	38.9045
1151.59	17.1104
1154.49	11.6607
1157.38	2.23096
1160.27	22.9208
1163.16	24.3701
1166.06	39.8308
1168.95	29.7672
1171.84	37.5148
1174.73	43.321
1177.63	36.6578
1180.52	40.6089
1183.41	36.777
1186.31	31.7618
1189.2	7.91156
1192.09	6.17615
1194.98	34.7328
1197.88	35.3094
1200.77	76.4471
1203.66	11.7441
1206.55	50.8363
1209.45	68.8762
1212.34	24.1718
1215.23	1.27759
1218.12	49.5225
1221.02	34.602
1223.91	19.5115
1226.8	29.8605
