Measurement: Raman, 532 nm, unoriented, Raman Data Processed
Mineral: Kamaishilite
Rruff sample: R070297
Ideal chemistry: Ca_2_(SiAl_2_)O_6_(OH)_2_
Locality: Kamaishi mine, Iwate Prefecture, Tohoku Region, Honshu Island, Japan
Source: Michael Scott
Description: Colorless crystalline massive
Raman shift (cm-1)	intensity
143.751	0
146.644	105.857
149.536	134.556
152.429	271.512
155.322	483.636
158.214	611.998
161.107	415.211
164	315.562
166.893	263.394
169.785	205.425
172.678	123.174
175.571	100.145
178.463	128.049
181.356	18.5889
184.249	34.2207
187.142	48.1807
190.034	9.21582
192.927	53.2881
195.82	35.7373
198.712	27.5488
201.605	41.4707
204.498	13.8389
207.39	130.496
210.283	172.715
213.176	194.92
216.069	104.865
218.961	149.806
221.854	178.825
224.747	148.462
227.639	133.234
230.532	92.4668
233.425	56.6318
236.317	87.4453
239.21	53.5469
242.103	73.8428
244.995	92.2256
247.888	250.487
250.781	295.024
253.674	310.625
256.566	361.071
259.459	378.389
262.352	452.656
265.244	596.735
268.137	668.622
271.03	649.913
273.923	622.79
276.815	570.104
279.708	473.079
282.601	344.103
285.493	305.026
288.386	138.496
291.279	196.143
294.171	73.7305
297.064	18.9209
299.957	80.8662
302.849	52.752
305.742	16.3438
308.635	183.847
311.528	184.994
314.42	159.913
317.313	196.035
320.206	358.478
323.098	233.935
325.991	231.334
328.884	349.234
331.776	400.635
334.669	326.225
337.562	265.188
340.455	252.337
343.347	186.083
346.24	130.423
349.133	301.304
352.025	324.858
354.918	299.227
357.811	182.702
360.704	240.151
363.596	230.795
366.489	150.093
369.382	267.124
372.274	167.703
375.167	219.973
378.06	319.136
380.952	177.324
383.845	225.352
386.738	286.276
389.63	227.073
392.523	131.287
395.416	150.034
398.308	41.0957
401.201	117.269
404.094	4.34863
406.987	51.8779
409.879	60.6094
412.772	20.6729
415.665	30.6729
418.557	49.4971
421.45	118.231
424.343	15.044
427.236	1.99121
430.128	33.1143
433.021	26.1035
435.914	331.083
438.806	48.3272
441.699	153.583
444.592	309.825
447.484	288.149
450.377	285.438
453.27	287.172
456.163	236.728
459.055	252.957
461.948	147.392
464.841	70.6377
467.733	99.6924
470.626	106.621
473.519	125.446
476.411	83.7578
479.304	18.9453
482.197	202.093
485.089	173.032
487.982	256.644
490.875	286.58
493.768	220.815
496.66	282.493
499.553	337.792
502.446	471.655
505.338	659.433
508.231	762.782
511.124	923.701
514.016	1294.46
516.909	1468.5
519.802	1517.89
522.695	1361.11
525.587	1083.49
528.48	769.734
531.373	455.407
534.265	362.14
537.158	283.784
540.051	168.257
542.943	40.5772
545.836	43.8955
548.729	2.64941
551.622	3.29981
554.514	2.19141
557.407	16.4092
560.3	71.749
563.192	25.1104
566.085	100.846
568.978	180.327
571.87	227.966
574.763	356.935
577.656	487.092
580.549	648.406
583.441	507.108
586.334	558.944
589.227	435.192
592.119	218.712
595.012	231.755
597.905	132.08
600.798	35.7295
603.69	43.5283
606.583	51.6172
609.476	38.9688
612.368	76.4102
615.261	79.7109
618.154	182.888
621.046	313.14
623.939	395.757
626.832	402.89
629.725	433.474
632.617	660.072
635.51	650.694
638.403	718.121
641.295	740.409
644.188	685.539
647.081	686.52
649.973	460.933
652.866	357.519
655.759	322.754
658.651	339.736
661.544	252.743
664.437	95.418
667.33	127.403
670.222	139.288
673.115	146.101
676.008	56.8965
678.9	164.665
681.793	124.976
684.686	102.321
687.578	91.5586
690.471	59.7022
693.364	17.6523
696.256	31.4102
699.149	102.028
702.042	187.378
704.935	121.718
707.827	134.165
710.72	278.887
713.613	230.676
716.505	169.027
719.398	156.606
722.291	171.647
725.183	74.9805
728.076	140.162
730.969	16.4629
733.862	30.5137
736.754	14.3809
739.647	21.4102
742.54	170.367
745.432	54.0781
748.325	129.117
751.218	92.1934
754.111	28.2109
757.003	65.5371
759.896	40.6699
762.789	59.9629
765.681	114.098
768.574	172.1
771.467	190.736
774.359	107.193
777.252	66.2266
780.145	92.7031
783.038	50.2188
785.93	64.0352
788.823	86.3672
791.716	71.7324
794.608	113.231
797.501	188.43
800.394	210.254
803.286	252.5
806.179	292.4
809.072	325.252
811.965	371.049
814.857	472.576
817.75	363.834
820.643	546.311
823.535	596.811
826.428	790.799
829.321	874.873
832.213	1066.26
835.106	1204.27
837.999	1274.98
840.891	1475.63
843.784	1693.56
846.677	1851.16
849.57	1762.77
852.462	1778.05
855.355	1699.94
858.248	1560.8
861.14	1610.65
864.033	1271.46
866.926	1314.55
869.818	1058.78
872.711	825.221
875.604	743.951
878.497	737.629
881.389	623.918
884.282	495.768
887.175	523.188
890.067	505.727
892.96	466.184
895.853	447.58
898.745	381.195
901.638	402.17
904.531	270.566
907.424	159.238
910.316	84.6172
913.209	89.1016
916.102	87.6035
918.994	94.8906
921.887	105.981
924.78	59.541
927.673	41.8652
930.565	2.24414
933.458	5.34961
936.351	2.38477
939.243	77.7832
942.136	9.44141
945.029	1.11523
947.921	68.541
950.814	75.7031
953.707	84.3301
956.6	125.404
959.492	89.6621
962.385	294.088
965.278	235.039
968.17	238.225
971.063	403.519
973.956	394.943
976.848	292.348
979.741	479.615
982.634	545.348
985.527	823.629
988.419	1111.51
991.312	1128.82
994.205	638.654
997.097	443.182
999.99	316.336
1002.88	318.531
1005.77	266.06
1008.67	127.268
1011.56	257.125
1014.45	121.188
1017.35	112.236
1020.24	76.5566
1023.13	111.91
1026.02	40.543
1028.92	93.8769
1031.81	65.7246
1034.7	77.5977
1037.6	110.834
1040.49	106.564
1043.38	26.3516
1046.27	59.2637
1049.17	15.332
1052.06	17.8711
1054.95	36.9316
1057.84	30.9746
1060.74	119.68
1063.63	154.885
1066.52	232.268
1069.41	290.019
1072.31	511.539
1075.2	408.26
1078.09	429.09
1080.98	581.352
1083.88	582.061
1086.77	864.182
1089.66	403.902
1092.56	270.045
1095.45	160.644
1098.34	61.9375
1101.23	63.0312
1104.13	70.7363
1107.02	89.2129
1109.91	139.473
1112.81	103.008
1115.7	103.203
1118.59	94.1289
1121.48	23.4141
1124.38	193.94
1127.27	99.0254
1130.16	70.4258
1133.05	198.353
1135.95	87.6231
1138.84	166.894
1141.73	159.002
1144.62	149.279
1147.52	80.4492
1150.41	94.3965
1153.3	22.4551
1156.2	73.7305
1159.09	96.584
1161.98	77.125
1164.87	14.9863
1167.77	20.502
1170.66	24.1426
1173.55	86.8379
1176.44	70.2852
1179.34	42.7891
1182.23	110.008
1185.12	107.445
1188.02	104.865
1190.91	189.588
1193.8	143.56
1196.69	90.7324
1199.59	80.5234
1202.48	131.879
1205.37	38.5898
1208.26	131.248
1211.16	121.41
1214.05	2.93555
1216.94	115.769
1219.84	73.1113
1222.73	143.688
1225.62	102.772
1228.51	71.5156
1231.41	8.58789
1234.3	24.5625
1237.19	54.5332
1240.08	14.5176
1242.98	41.7793
1245.87	154.478
1248.76	128.496
1251.65	89.5391
1254.55	38.584
1257.44	112.656
1260.33	218.641
1263.23	61.9121
1266.12	150.783
1269.01	147.477
1271.9	61.8984
1274.8	163.228
1277.69	94.1836
1280.58	64.7754
1283.47	62.9062
