Measurement: Raman, 780 nm, unoriented, Raman Data Processed
Mineral: Kamaishilite
Rruff sample: R070297
Ideal chemistry: Ca_2_(SiAl_2_)O_6_(OH)_2_
Locality: Kamaishi mine, Iwate Prefecture, Tohoku Region, Honshu Island, Japan
Source: Michael Scott
Description: Colorless crystalline massive
Raman shift (cm-1)	intensity
142.183	0
145.076	1.15723
147.968	101.447
150.861	149.15
153.754	208.163
156.646	371.367
159.539	508.877
162.432	521.914
165.325	383.819
168.217	257.491
171.11	227.346
174.003	155.802
176.895	76.522
179.788	32.7188
182.681	11.2881
185.573	15.7222
188.466	10.2573
191.359	14.4062
194.251	43.5352
197.144	42.6768
200.037	2.88916
202.93	11.3315
205.822	105.097
208.715	141.236
211.608	267.715
214.5	353.022
217.393	325.813
220.286	349.416
223.179	229.925
226.071	226.398
228.964	160.49
231.857	87.4277
234.749	83.0854
237.642	110.228
240.535	54.5537
243.427	103.595
246.32	129.042
249.213	202.144
252.106	239.67
254.998	310.804
257.891	302.685
260.784	285.829
263.676	376.625
266.569	368.051
269.462	491.956
272.354	553.455
275.247	491.291
278.14	460.553
281.033	423.764
283.925	386.727
286.818	223.885
289.711	159.615
292.603	26.9692
295.496	47.332
298.389	14.3589
301.281	7.85742
304.174	27.4678
307.067	21.3852
309.959	100.181
312.852	109.553
315.745	154.367
318.638	212.56
321.53	233.405
324.423	176.235
327.316	183.329
330.208	153.366
333.101	198.03
335.994	167.634
338.887	115.019
341.779	92.4976
344.672	133.791
347.565	141.041
350.457	177.9
353.35	98.5891
356.243	158.875
359.135	119.158
362.028	91.3835
364.921	142.462
367.813	141.998
370.706	200.875
373.599	155.619
376.492	186.003
379.384	145.258
382.277	204.007
385.17	153.265
388.062	119.886
390.955	88.5586
393.848	132.353
396.74	132.688
399.633	46.5637
402.526	56.0667
405.419	31.1431
408.311	34.1457
411.204	17.1699
414.097	20.3845
416.989	27.0796
419.882	11.5381
422.775	1.62085
425.668	0.12207
428.56	11.051
431.453	10.0588
434.346	12.032
437.238	9.28223
440.131	28.7847
443.024	119.766
445.916	199.701
448.809	220.313
451.702	318.364
454.594	323.784
457.487	293.497
460.38	229.783
463.273	238.245
466.165	203.088
469.058	172.529
471.951	97.0002
474.843	11.8601
477.736	50.2153
480.629	44.8845
483.522	98.2249
486.414	108.883
489.307	105.391
492.2	232.476
495.092	205.857
497.985	205.788
500.878	193.236
503.77	233.11
506.663	316.401
509.556	437.716
512.448	660.231
515.341	830.55
518.234	1047.72
521.127	1071.24
524.019	1005.98
526.912	752.823
529.805	533.808
532.697	384.642
535.59	245.794
538.483	126.508
541.375	89.8101
544.268	9.60962
547.161	13.4536
550.054	7.09814
552.946	34.4578
555.839	14.7952
558.732	10.4985
561.624	39.4062
564.517	25.9168
567.41	22.4311
570.303	70.4241
573.195	119.369
576.088	180.927
578.981	306.601
581.873	333.759
584.766	406.775
587.659	318.209
590.551	264.174
593.444	129.998
596.337	93.7205
599.229	99.48
602.122	24.4045
605.015	69.4465
607.908	59.0579
610.8	77.7283
613.693	69.6238
616.586	173.665
619.478	178.533
622.371	216.69
625.264	321.983
628.156	361.315
631.049	478.493
633.942	516.683
636.835	570.37
639.727	627.684
642.62	586.22
645.513	503.908
648.405	460.405
651.298	349.743
654.191	315.914
657.083	260.811
659.976	172.147
662.869	173.366
665.761	59.0874
668.654	54.283
671.547	56.1274
674.44	68.1807
677.332	34.1606
680.225	32.0085
683.118	2.45264
686.01	26.1348
688.903	22.356
691.796	18.5386
694.688	22.2339
697.581	34.9048
700.474	17.7383
703.367	5.36255
706.259	47.3174
709.152	72.8962
712.045	73.2393
714.937	49.1528
717.83	1.19434
720.723	14.0002
723.615	31.376
726.508	9.13403
729.401	23.9072
732.294	53.291
735.186	29.1189
738.079	8.94702
740.972	29.1406
743.864	78.3852
746.757	12.6575
749.65	8.33618
752.543	39.8799
755.435	3.06421
758.328	52.1653
761.221	52.4675
764.113	2.58374
767.006	35.148
769.899	3.90576
772.791	9.83594
775.684	11.9402
778.577	50.5395
781.47	21.2278
784.362	13.9795
787.255	29.6697
790.148	21.4448
793.04	31.5855
795.933	40.6768
798.826	45.3777
801.718	72.2219
804.611	98.335
807.504	143.973
810.396	173.956
813.289	265.259
816.182	257.449
819.075	265.117
821.967	340
824.86	385.158
827.753	410.205
830.645	526.465
833.538	623.662
836.431	698.866
839.323	850.85
842.216	963.541
845.109	1057.15
848.002	1121.06
850.894	1146.06
853.787	1150.12
856.68	1127.56
859.572	1055.59
862.465	926.236
865.358	872.643
868.25	820.187
871.143	698.156
874.036	615.464
876.929	520.157
879.821	485.632
882.714	429.673
885.607	358.116
888.5	366.166
891.392	364.189
894.285	364.769
897.178	323.811
900.07	376.133
902.963	275.53
905.856	258.608
908.748	256.688
911.641	148.071
914.534	175.072
917.426	116.459
920.319	111.552
923.212	98.9907
926.105	59.554
928.997	66.6458
931.89	26.1611
934.783	14.7322
937.675	25.5293
940.568	14.1333
943.461	5.47436
946.353	21.5386
949.246	15.5879
952.139	4.41138
955.032	45.9199
957.924	11.7346
960.817	57.8337
963.71	111.342
966.602	146.137
969.495	144.798
972.388	155.699
975.28	174.075
978.173	184.845
981.066	197.7
983.958	427.461
986.851	645.624
989.744	947.395
992.637	926.519
995.529	538.14
998.422	274.248
1001.32	154.486
1004.21	103.996
1007.1	75.3726
1009.99	58.999
1012.88	41.2832
1015.78	34.0762
1018.67	34.7673
1021.56	16.7935
1024.46	15.9072
1027.35	3.89356
1030.24	26.2953
1033.13	31.7106
1036.03	9.03833
1038.92	6.98572
1041.81	4.79333
1044.7	18.3468
1047.6	12.9269
1050.49	20.6078
1053.38	9.06726
1056.28	49.5951
1059.17	52.124
1062.06	53.035
1064.95	119.683
1067.85	167.249
1070.74	242.516
1073.63	269.013
1076.53	272.171
1079.42	224.524
1082.31	274.598
1085.2	370.195
1088.1	385.302
1090.99	167.239
1093.88	73.6293
1096.77	73.2462
1099.67	47.5848
1102.56	32.3821
1105.45	33.7524
1108.35	40.3824
1111.24	3.66638
1114.13	55.1921
1117.02	27.3634
1119.91	18.4624
1122.81	26.5299
1125.7	28.0972
1128.59	10.9817
1131.49	30.8036
1134.38	35.5906
1137.27	51.4816
1140.16	31.1165
1143.06	49.2502
1145.95	41.7048
1148.84	3.5155
1151.73	44.2089
1154.63	0.342407
1157.52	64.4216
1160.41	0.141602
1163.31	5.1438
1166.2	13.0491
1169.09	21.1874
1171.98	15.9034
1174.88	36.8381
1177.77	32.9813
1180.66	42.1128
1183.56	33.967
1186.45	42.1127
1189.34	6.85437
1192.23	28.0102
1195.13	15.2532
1198.02	53.8425
1200.91	25.9784
1203.8	47.3942
1206.7	6.10889
1209.59	33.7489
1212.48	53.6901
1215.38	35.394
1218.27	27.559
1221.16	59.5465
1224.05	20.7728
1226.94	39.6448
1229.84	28.3456
1232.73	21.9667
1235.62	17.6768
1238.52	29.0845
1241.41	16.5311
1244.3	8.35327
1247.19	2.92688
1250.09	22.2477
1252.98	11.2717
1255.87	18.3152
1258.77	26.8919
1261.66	12.6207
1264.55	31.052
1267.44	21.1333
1270.34	49.04
1273.23	66.4435
1276.12	29.443
