Measurement: Raman, 785 nm, unoriented, Raman Data Processed
Mineral: Kamchatkite
Rruff sample: R070039
Ideal chemistry: KCu^2+^_3_O(S^6+^O_4_)_2_Cl
Locality: Great Tolbachik Eruption (1975-6), Tolbachik Volcano, Kamchatka Peninsula, Russia
Source: Michael Scott
Description: Light apple green poorly formed crystals, co-type material
Raman shift (cm-1)	intensity
133.363	0
136.255	6.39391
139.148	4.99049
142.041	35.8787
144.934	56.3541
147.826	106.81
150.719	104.408
153.612	122.641
156.504	95.8716
159.397	40.1061
162.29	129.528
165.182	148.109
168.075	135.086
170.968	151.319
173.861	144.809
176.753	115.603
179.646	103.058
182.539	90.7138
185.431	133.999
188.324	75.6013
191.217	97.5668
194.109	114.594
197.002	125.293
199.895	160.987
202.787	174.59
205.68	225.408
208.573	280.007
211.466	301.319
214.358	376.957
217.251	379.576
220.144	403.977
223.036	364.76
225.929	229.244
228.822	234.463
231.714	151.367
234.607	110.785
237.5	93.832
240.393	48.33
243.285	75.6196
246.178	20.3707
249.071	5.30121
251.963	40.6852
254.856	18.8465
257.749	20.8619
260.642	28.6074
263.534	36.0372
266.427	14.1592
269.32	18.4211
272.212	10.5787
275.105	6.98917
277.998	22.7504
280.89	16.0219
283.783	14.2205
286.676	1.17871
289.568	31.331
292.461	30.0556
295.354	3.58514
298.247	12.2878
301.139	29.8396
304.032	20.9189
306.925	29.62
309.817	24.087
312.71	28.9882
315.603	6.27399
318.495	13.2653
321.388	4.33875
324.281	29.1511
327.174	38.4533
330.066	53.6741
332.959	46.8716
335.852	63.7062
338.744	66.0278
341.637	79.7435
344.53	76.0364
347.423	41.7487
350.315	108.168
353.208	99.4916
356.101	88.886
358.993	114.696
361.886	71.8752
364.779	6.99298
367.671	61.6555
370.564	1.37408
373.457	21.6411
376.35	14.7978
379.242	68.8338
382.135	47.9743
385.028	59.2778
387.92	41.4749
390.813	20.0439
393.706	36.7143
396.599	22.6511
399.491	43.6924
402.384	57.0234
405.277	21.3142
408.169	9.37146
411.062	5.57523
413.955	3.05865
416.847	23.5113
419.74	49.2297
422.633	37.1865
425.526	48.1925
428.418	58.5915
431.311	73.177
434.204	141.974
437.096	165.167
439.989	157.062
442.882	185.064
445.774	143.256
448.667	145.729
451.56	81.4374
454.452	52.0277
457.345	28.2358
460.238	70.4963
463.131	74.5468
466.023	68.2698
468.916	97.0091
471.809	65.0756
474.701	96.2273
477.594	100.235
480.487	60.9137
483.38	70.0447
486.272	130.194
489.165	77.3973
492.058	46.218
494.95	36.0138
497.843	115.476
500.736	109.655
503.628	64.5339
506.521	115.717
509.414	95.448
512.307	95.0661
515.199	90.7316
518.092	73.8209
520.985	11.0577
523.877	0.6763
526.77	7.96008
529.663	29.7989
532.555	11.7936
535.448	52.5349
538.341	14.1898
541.234	17.218
544.126	7.8494
547.019	21.9591
549.912	37.9622
552.804	36.9996
555.697	6.28351
558.59	3.72971
561.482	31.7148
564.375	0.062836
567.268	36.2334
570.16	9.82672
573.053	23.3872
575.946	51.6301
578.839	30.544
581.731	13.7898
584.624	51.1693
587.517	54.2383
590.409	76.0097
593.302	69.5537
596.195	37.8413
599.087	117.371
601.98	154.15
604.873	215.598
607.766	183.995
610.658	163.904
613.551	107.519
616.444	135.275
619.336	89.301
622.229	143.269
625.122	232.013
628.014	291.378
630.907	307.281
633.8	246.861
636.693	206.971
639.585	115.889
642.478	114.075
645.371	68.7514
648.263	64.1824
651.156	48.0608
654.049	70.2721
656.942	55.1573
659.834	17.0639
662.727	58.8994
665.62	27.8891
668.512	10.3421
671.405	43.8488
674.298	16.8266
677.191	33.4027
680.083	11.5018
682.976	34.9177
685.869	44.9571
688.761	9.07488
691.654	52.3476
694.547	47.6096
697.439	65.9071
700.332	9.89258
703.225	73.1073
706.117	34.0344
709.01	37.415
711.903	64.7772
714.796	24.3955
717.688	52.0604
720.581	12.4521
723.474	28.388
726.366	3.18506
729.259	50.9781
732.152	58.7931
735.044	13.4139
737.937	1.96246
740.83	41.4645
743.723	30.7285
746.615	4.16916
749.508	19.8231
752.401	45.7273
755.293	17.8389
758.186	17.2373
761.079	26.1451
763.971	23.5523
766.864	60.4394
769.757	57.5772
772.65	35.2707
775.542	24.2777
778.435	27.4106
781.328	45.7566
784.22	44.6799
787.113	33.5378
790.006	5.84229
792.899	23.8145
795.791	38.6294
798.684	17.3745
801.577	28.3264
804.469	73.3589
807.362	61.3398
810.255	45.1092
813.147	44.9021
816.04	27.0693
818.933	30.4161
821.826	46.2304
824.718	37.2015
827.611	14.4147
830.504	18.9407
833.396	52.4964
836.289	66.7198
839.182	18.6532
842.074	42.8026
844.967	11.2667
847.86	24.077
850.753	37.8884
853.645	92.1867
856.538	29.5738
859.431	40.9496
862.323	24.5373
865.216	74.5268
868.109	11.3625
871.001	45.328
873.894	66.315
876.787	35.1797
879.679	63.8592
882.572	43.3042
885.465	26.0761
888.358	5.47293
891.25	16.4976
894.143	102.333
897.036	45.5851
899.928	68.2734
902.821	41.3019
905.714	10.5977
908.606	24.4424
911.499	51.549
914.392	45.1574
917.285	1.38205
920.177	17.2339
923.07	77.5312
925.963	83.5111
928.856	2.97629
931.748	38.3281
934.641	4.4086
937.534	21.8745
940.426	38.5713
943.319	35.0393
946.212	24.4982
949.104	12.8094
951.997	7.85849
954.89	6.28598
957.783	38.2524
960.675	87.3613
963.568	0.293121
966.461	8.96844
969.353	34.6942
972.246	17.4415
975.139	44.1216
978.031	74.1381
980.924	119.66
983.817	135.222
986.71	194.961
989.602	336.975
992.495	655.317
995.388	1010.22
998.28	1295.22
1001.17	1399.84
1004.07	935.894
1006.96	514.095
1009.85	193.38
1012.74	96.3678
1015.64	51.9807
1018.53	30.3613
1021.42	54.7988
1024.32	75.3668
1027.21	67.4035
1030.1	98.4073
1032.99	98.5487
1035.88	147.45
1038.78	215.645
1041.67	248.038
1044.56	287.086
1047.46	360.884
1050.35	354.729
1053.24	304.674
1056.13	227.455
1059.03	139.26
1061.92	71.6753
1064.81	60.2425
1067.7	52.9417
1070.6	14.0315
1073.49	10.6679
1076.38	21.1927
1079.28	1.1023
1082.17	9.18756
1085.06	15.6784
1087.95	26.5243
1090.85	27.5725
1093.74	27.9926
1096.63	23.4205
1099.53	21.5577
1102.42	34.1852
1105.31	50.5316
1108.2	56.0219
1111.1	38.9015
1113.99	25.4863
1116.88	8.66931
1119.77	27.6891
1122.67	31.0725
1125.56	8.30708
1128.45	22.6251
1131.34	47.55
1134.24	79.0662
1137.13	2.09773
1140.02	85.3087
1142.91	9.84044
1145.81	54.0593
1148.7	30.3627
1151.59	25.8931
1154.49	9.05368
1157.38	5.56407
1160.27	16.0451
1163.16	34.4845
1166.06	34.8106
1168.95	58.5247
1171.84	36.4254
1174.73	99.128
1177.63	41.5442
1180.52	61.6411
1183.41	42.7148
1186.31	82.7868
1189.2	146.569
1192.09	107.199
1194.98	131.383
1197.88	163.165
1200.77	174.138
1203.66	238.159
1206.56	277.193
1209.45	400.772
1212.34	458.202
1215.23	359.253
1218.12	303.811
1221.02	144.343
1223.91	113.301
1226.8	38.2246
1229.7	11.0506
1232.59	32.2195
1235.48	14.3505
1238.37	9.62125
