Measurement: Raman, 780 nm, unoriented, Raman Data Processed
Mineral: Kapellasite
Rruff sample: R140623
Ideal chemistry: Cu^2+^_3_Zn^2+^(OH)_6_Cl_2_
Locality: Sounion mine No. 19, Lavrion District, Attik√≠ Prefecture, Greece
Source: Stefan Schorn
Description: Acicular green-blue tufts
Raman shift (cm-1)	intensity
93.4884	0
96.8632	1.25489
100.238	0.002266
103.613	0.034668
106.988	2.22327
110.362	3.77935
113.737	4.45351
117.112	6.37666
120.487	5.88093
123.862	2.88683
127.237	0.157665
130.611	0.71727
133.986	0.684456
137.361	0.648575
140.736	2.36817
144.111	2.6547
147.485	4.36375
150.86	7.84582
154.235	12.5652
157.61	15.2846
160.985	11.7596
164.359	8.60799
167.734	5.18711
171.109	4.00714
174.484	2.89061
177.859	2.25354
181.234	1.98046
184.608	2.1032
187.983	1.91927
191.358	0.998253
194.733	1.69045
198.108	1.61317
201.482	1.65827
204.857	2.05493
208.232	2.45526
211.607	2.34702
214.982	3.5634
218.357	4.08664
221.731	4.95089
225.106	4.75991
228.481	5.25822
231.856	6.02725
235.231	6.15931
238.605	6.48453
241.98	6.82523
245.355	6.13453
248.73	5.69613
252.105	4.56068
255.48	3.70633
258.854	3.1717
262.229	1.89709
265.604	1.41161
268.979	1.03533
272.354	0.471123
275.728	0.201729
279.103	0.198021
282.478	0.088276
285.853	0.393856
289.228	0.213989
292.602	0.043159
295.977	0.318981
299.352	0.113232
302.727	0.644035
306.102	1.67507
309.476	1.12307
312.851	1.66024
316.226	2.7033
319.601	1.99556
322.976	2.68949
326.351	2.66282
329.725	2.19352
333.1	1.7719
336.475	0.977337
339.85	1.06136
343.225	0.556
346.599	0.300932
349.974	0.081352
353.349	0.08939
356.724	0.210596
360.099	0.102711
363.474	0.642828
366.848	0.093044
370.223	0.401749
373.598	0.233566
376.973	0.404995
380.348	1.31189
383.722	1.19615
387.097	1.74149
390.472	2.65411
393.847	4.24476
397.222	5.26099
400.596	7.18169
403.971	9.30257
407.346	10.5252
410.721	11.1834
414.096	8.81846
417.471	6.00066
420.845	3.11895
424.22	2.23183
427.595	1.41179
430.97	1.62981
434.345	1.05865
437.719	0.593679
441.094	0.473976
444.469	0.306997
447.844	0.82723
451.219	0.621311
454.594	0.90045
457.968	1.21563
461.343	2.10349
464.718	2.70469
468.093	3.42646
471.468	4.87862
474.842	4.97044
478.217	6.10851
481.592	6.0369
484.967	4.88282
488.342	2.85055
491.716	2.02343
495.091	1.52528
498.466	1.40155
501.841	0.951391
505.216	0.861078
508.591	0.510881
511.965	0.30094
515.34	0.059969
518.715	0.013634
522.09	0.058504
525.465	0.279644
528.84	0.054356
532.214	0.563211
535.589	0.024744
538.964	0.042048
542.339	0.403912
545.713	0.246449
549.088	0.355278
552.463	0.132748
555.838	0.360415
559.213	0.033142
562.588	0.142084
565.962	1.14322
569.337	0.381418
572.712	0.763248
576.087	0.68791
579.462	0.394308
582.837	0.703117
586.211	0.474596
589.586	0.422924
592.961	0.38777
596.336	1.05432
599.711	0.83638
603.085	0.384344
606.46	0.620613
609.835	0.484982
613.21	0.467106
616.585	0.260363
619.96	0.516432
623.334	0.033518
626.709	0.390188
630.084	0.535446
633.459	0.468891
636.833	0.792383
640.208	0.593586
643.583	0.953133
646.958	0.397993
650.333	0.381172
653.708	0.1464
657.082	0.636328
660.457	0.383482
663.832	0.991203
667.207	0.644672
670.582	0.378912
673.957	0.249464
677.331	0.382177
680.706	0.808231
684.081	0.146097
687.456	0.456802
690.831	0.216503
694.205	0.355158
697.58	0.514032
700.955	0.770325
704.33	0.044096
707.705	0.253662
711.079	0.52076
714.454	0.235151
717.829	0.635965
721.204	0.358046
724.579	0.409521
727.953	0.499111
731.328	0.222462
734.703	0.160276
738.078	0.620365
741.453	0.617903
744.828	0.794636
748.202	0.436712
751.577	0.004345
754.952	0.859064
758.327	0.82406
761.702	0.382355
765.077	0.5704
768.451	0.267172
771.826	0.404083
775.201	0.042786
778.576	0.022289
781.951	0.0702
785.325	0.023729
788.7	0.552107
792.075	0.638464
795.45	0.505255
798.825	0.006283
802.199	0.285006
805.574	0.19809
808.949	0.080782
812.324	0.041056
815.699	0.815964
819.073	0.418039
822.448	0.747448
825.823	0.139978
829.198	0.660051
832.573	0.599615
835.948	0.620726
839.322	1.11247
842.697	0.843166
846.072	0.766745
849.447	0.903316
852.822	1.36592
856.197	1.56109
859.571	0.861326
862.946	0.907333
866.321	1.45346
869.696	0.73801
873.071	0.969568
876.445	0.660429
879.82	1.14173
883.195	1.01513
886.57	1.24937
889.945	1.34019
893.319	1.95158
896.694	0.792686
900.069	1.38306
903.444	1.4394
906.819	1.52377
910.193	1.81314
913.568	1.38131
916.943	0.802376
920.318	1.21598
923.693	0.565655
927.068	0.100323
930.442	0.487183
933.817	0.514135
937.192	0.346983
940.567	0.009699
943.942	0.073742
947.317	0.248646
950.691	0.451317
954.066	0.081125
957.441	0.006548
960.816	0.25655
964.191	0.253904
967.565	0.235865
970.94	0.467348
974.315	0.269255
977.69	0.383242
981.065	0.079891
984.439	0.287596
987.814	0.464321
991.189	0.647579
994.564	0.536798
997.939	0.360926
1001.31	0.251778
1004.69	0.439474
1008.06	0.382614
1011.44	0.18532
1014.81	0.342621
1018.19	0.865793
1021.56	0.141037
1024.94	0.653252
1028.31	0.51857
1031.69	0.391895
1035.06	0.74276
1038.44	0.707464
1041.81	0.639881
1045.19	0.9293
1048.56	1.09634
1051.94	1.04127
1055.31	0.473379
1058.68	0.344866
1062.06	0.544088
1065.43	0.834249
1068.81	0.570374
1072.18	0.33754
1075.56	0.141747
1078.93	0.237734
1082.31	0.485136
1085.68	0.461761
1089.06	0.366476
1092.43	0.174274
1095.81	0.00038
1099.18	0.519827
1102.56	0.438904
1105.93	0.589588
1109.31	0.092197
1112.68	0.141714
1116.06	0.326851
1119.43	0.181742
1122.81	0.714838
1126.18	0.367584
1129.56	0.770252
1132.93	0.489872
1136.31	0.519207
1139.68	0.368523
1143.06	0.835789
1146.43	0.831564
1149.81	1.00005
1153.18	0.427517
1156.56	0.383593
1159.93	0.211775
1163.31	0.189674
1166.68	0.399273
1170.05	0.451729
1173.43	0.995903
1176.8	0.940035
1180.18	0.934162
1183.55	0.467752
1186.93	0.446974
1190.3	0.377069
1193.68	0.871323
1197.05	0.819305
1200.43	0.582632
1203.8	0.058273
1207.18	0.750626
1210.55	0.418385
1213.93	0.736834
1217.3	0.157146
1220.68	0.330023
1224.05	0.404972
1227.43	0.231415
1230.8	0.531847
1234.18	0.334059
1237.55	0.248289
1240.92	0.560505
1244.3	0.168278
1247.67	0.224802
1251.05	0.595251
1254.42	0.259268
1257.8	0.298962
1261.17	0.797621
1264.55	0.867714
1267.92	0.049294
1271.3	0.797314
1274.67	0.516933
1278.05	0.042828
1281.42	0.149767
1284.8	0
