Measurement: Raman, 532 nm, unoriented, Raman Data Processed
Mineral: Kapustinite
Rruff sample: R060896
Ideal chemistry: Na_6_Zr^4+^Si_6_O_16_(OH)_2_
Locality: Palitra pegmatite, Kedykverpakhk Mountain, Lovozero Massif, Russia
Source: Michael Scott
Description: Reddish brown vitreous massive fragment
Raman shift (cm-1)	intensity
187.091	0
189.983	89.1748
192.876	63.8984
195.769	40.1709
198.662	55.9062
201.554	33.9414
204.447	17.4468
207.34	71.1118
210.232	25.3403
213.125	20.9038
216.018	29.1367
218.911	81.1655
221.803	8.7373
224.696	61.5352
227.589	46.6743
230.481	46.4961
233.374	65.3438
236.267	6.0542
239.159	54.8037
242.052	39.352
244.945	96.3286
247.838	130.857
250.73	120.184
253.623	58.2817
256.516	4.11572
259.408	37.1621
262.301	108.863
265.194	81.4409
268.086	48.5073
270.979	85.7978
273.872	4.43701
276.764	63.3906
279.657	61.5337
282.55	74.1108
285.442	39.5107
288.335	54.8984
291.228	54.3887
294.121	25.0283
297.013	34.0879
299.906	37.8711
302.799	11.0347
305.691	67.5151
308.584	119.68
311.477	106.148
314.37	80.8296
317.262	48.4697
320.155	2.57324
323.048	85.0894
325.94	41.4092
328.833	10.2607
331.726	60.833
334.618	23.0249
337.511	30.2222
340.404	51.0723
343.296	3.45361
346.189	18.0689
349.082	83.6177
351.975	96.0698
354.867	38.3433
357.76	44.8628
360.653	32.6782
363.545	49.9473
366.438	2.59082
369.331	2.13672
372.224	7.0874
375.116	46.9815
378.009	30.8677
380.902	21.0855
383.794	15.8384
386.687	67.0439
389.58	58.542
392.472	52.8003
395.365	16.813
398.258	51.9273
401.151	62.3901
404.043	64.2798
406.936	48.8096
409.829	93.8315
412.721	26.2847
415.614	81.9443
418.507	56.1157
421.399	64.4438
424.292	53.2441
427.185	7.0249
430.077	60.3066
432.97	26.417
435.863	42.6728
438.755	25.4121
441.648	134.456
444.541	114.861
447.434	33.7334
450.326	63.2056
453.219	0.520996
456.112	21.7505
459.004	54.6289
461.897	6.84521
464.79	72.3984
467.683	9.8877
470.575	54.7783
473.468	14.2832
476.361	18.875
479.253	2.5459
482.146	20.6748
485.039	60.8574
487.931	46.4414
490.824	88.1509
493.717	8.23242
496.61	39.5273
499.502	34.5093
502.395	37.2769
505.288	30.2754
508.18	75.584
511.073	99.0874
513.966	69.9863
516.858	94.0767
519.751	110.526
522.644	118.497
525.536	125.065
528.429	170.769
531.322	203.034
534.215	218.401
537.107	263.48
540	361.657
542.893	446.052
545.785	513.496
548.678	476.505
551.571	567.636
554.463	384.622
557.356	318.33
560.249	220.433
563.141	169.443
566.034	163.954
568.927	94.895
571.82	3.021
574.712	56.686
577.605	26.6841
580.498	37.0166
583.39	39.4219
586.283	82.8745
589.176	49.7197
592.068	20.7808
594.961	4.29541
597.854	12.29
600.747	2.10352
603.639	6.87598
606.532	18.1167
609.425	46.29
612.317	7.46338
615.21	35.1011
618.103	22.602
620.995	35.5605
623.888	54.4683
626.781	57.9575
629.673	56.3452
632.566	40.4482
635.459	30.8423
638.352	20.0425
641.244	4.48389
644.137	0.330078
647.03	7.91553
649.922	45.9912
652.815	56.1279
655.708	12.3418
658.601	87.3164
661.493	49.1758
664.386	12.4033
667.279	74.6992
670.171	99.208
673.064	28.749
675.957	0.20459
678.849	41.1094
681.742	41.394
684.635	36.0195
687.528	104.565
690.42	85.9155
693.313	54.7368
696.206	73.8364
699.098	105.029
701.991	79.1143
704.884	13.8203
707.776	23.4731
710.669	60.4297
713.562	14.0854
716.455	40.9302
719.347	22.0967
722.24	93.0806
725.133	111.058
728.025	105.769
730.918	25.7266
733.811	37.04
736.703	41.4365
739.596	64.6406
742.489	0.680176
745.381	20.6006
748.274	48.9404
751.167	60.8227
754.059	60.3384
756.952	28.4653
759.845	36.6719
762.738	57.0576
765.63	55.7412
768.523	26.2017
771.416	15.356
774.308	59.833
777.201	37.5776
780.094	27.4702
782.986	45.5825
785.879	52.9243
788.772	38.9375
791.665	40.4204
794.557	57.5693
797.45	4.61084
800.343	21.4673
803.235	0.203125
806.128	8.32227
809.021	38.5898
811.913	8.5669
814.806	56.0161
817.699	53.0288
820.592	8.20508
823.484	7.62793
826.377	10.8115
829.27	100.609
832.162	13.1943
835.055	33.7769
837.948	33.4727
840.841	62.4487
843.733	34.6895
846.626	49.6958
849.519	65.6865
852.411	65.3648
855.304	67.2046
858.197	139.888
861.089	100.984
863.982	144.41
866.875	183.202
869.767	76.6084
872.66	162.792
875.553	221.505
878.446	216.088
881.338	228.779
884.231	236.873
887.124	322.465
890.016	365.168
892.909	297.435
895.802	290.514
898.694	295.311
901.587	197.127
904.48	218.883
907.372	169.728
910.265	184.393
913.158	142.639
916.051	145.833
918.943	101.327
921.836	82.9302
924.729	106.99
927.621	32.8696
930.514	66.3232
933.407	49.2944
936.299	60.3506
939.192	11.1406
942.085	14.4756
944.977	24.416
947.87	26.1616
950.763	2.84961
953.656	23.3394
956.548	7.77002
959.441	17.8823
962.334	0.205566
965.226	9.02637
968.119	33.5039
971.012	15.0283
973.904	31.2632
976.797	63.9951
979.69	31.2256
982.583	28.2871
985.475	16.3145
988.368	49.5688
991.261	43.1773
994.153	44.7476
997.046	58.8555
999.939	80.7515
1002.83	129.136
1005.72	97.4219
1008.62	89.4077
1011.51	143.6
1014.4	143.268
1017.29	215.96
1020.19	242.838
1023.08	240.648
1025.97	275.393
1028.87	298.224
1031.76	304.321
1034.65	217.343
1037.54	271.125
1040.44	191.647
1043.33	221.097
1046.22	171.42
1049.12	225.034
1052.01	253.14
1054.9	224.326
1057.79	217
1060.68	236.362
1063.58	175.375
1066.47	214.656
1069.36	199.569
1072.26	232.449
1075.15	205.366
1078.04	242.153
1080.93	150.468
1083.83	194.974
1086.72	114.08
1089.61	164.107
1092.51	127.771
1095.4	78.7065
1098.29	129.516
1101.18	96.7617
1104.08	114.232
1106.97	89.3628
1109.86	63.9414
1112.75	10.7427
1115.65	21.1421
1118.54	0.118652
1121.43	10.2451
1124.33	39.3267
1127.22	36.1397
1130.11	17.7905
1133	59.0752
1135.9	24.4292
1138.79	42.3701
1141.68	51.6865
1144.57	3.76074
1147.47	2.28076
1150.36	28.3936
1153.25	74.0781
1156.14	77.7022
1159.04	7.67139
1161.93	27.9043
1164.82	37.9482
1167.71	27.1792
1170.61	43.3345
1173.5	66.1914
1176.39	103.995
1179.29	73.1196
1182.18	89.6963
1185.07	70.1372
1187.96	33.3848
1190.86	65.4414
1193.75	22.0796
1196.64	71.4253
1199.54	48.0288
1202.43	0.399902
1205.32	33.1587
1208.21	51.7832
1211.11	80.2544
1214	64.2324
1216.89	48.477
1219.78	26.8315
1222.68	59.5483
1225.57	15.8018
1228.46	64.561
1231.36	27.8862
1234.25	76.6113
1237.14	72.8335
1240.03	26.4927
1242.92	28.3789
1245.82	76.0796
1248.71	43.8447
1251.6	51.0859
