Measurement: Raman, 780 nm, unoriented, Raman Data Processed
Mineral: Kemmlitzite
Rruff sample: R070663
Ideal chemistry: SrAl_3_(As^5+^O_4_)(S^6+^O_4_)(OH)_6_
Locality: Falotta, Tinizong (Tinzen), Sursass (Oberhalbstein), Grischun (Grisons; Graub√ºnden), Switzerland
Source: Michael Scott
Description: Black bleb included in rhodonite
Raman shift (cm-1)	intensity
113.046	0
115.939	66.1626
118.831	88.4785
121.724	209.69
124.617	203.332
127.509	228.77
130.402	243.702
133.295	206.697
136.188	134.278
139.08	256.853
141.973	117.038
144.866	57.894
147.758	37.9155
150.651	7.76562
153.544	11.2495
156.436	156.019
159.329	49.8213
162.222	17.4409
165.114	4.33252
168.007	45.1113
170.9	11.0986
173.793	51.9893
176.685	59.1807
179.578	123.327
182.471	133.222
185.363	174.356
188.256	137.433
191.149	78.0684
194.042	187.169
196.934	173.353
199.827	292.718
202.72	282.11
205.612	254.744
208.505	195.909
211.398	286.603
214.291	346.517
217.183	339.782
220.076	325.322
222.969	236.5
225.861	325.127
228.754	235.603
231.647	245.115
234.539	234.957
237.432	178.62
240.325	150.69
243.218	69.3037
246.11	109.858
249.003	30.5889
251.896	40.7773
254.788	1.68945
257.681	55.1904
260.574	15
263.466	60.0185
266.359	107.73
269.252	99.4394
272.144	172.371
275.037	56.4219
277.93	83.6797
280.823	16.749
283.715	53.8164
286.608	36.334
289.501	5.25488
292.393	44.5938
295.286	30.6992
298.179	84.916
301.072	113.582
303.964	252.49
306.857	298.409
309.75	360.122
312.642	595.749
315.535	636.796
318.428	779.473
321.32	932.657
324.213	1013.52
327.106	1088.57
329.998	1099.2
332.891	1288.59
335.784	1338.17
338.677	1373.4
341.569	1470.73
344.462	1283.68
347.355	1263.37
350.247	1315.05
353.14	1264.81
356.033	1040.37
358.925	1033.05
361.818	806.558
364.711	598.854
367.604	488.271
370.496	382.762
373.389	289.46
376.282	184.201
379.174	151.507
382.067	103.275
384.96	19.4922
387.853	18.3828
390.745	23.7793
393.638	65.3701
396.531	6.13379
399.423	85.3789
402.316	146.662
405.209	162.61
408.101	345.279
410.994	310.127
413.887	354.381
416.779	487.322
419.672	520.322
422.565	484.119
425.458	549.354
428.35	459.456
431.243	534.743
434.136	476.668
437.028	488.005
439.921	404.708
442.814	459.699
445.707	378.774
448.599	276.816
451.492	226.3
454.385	120.668
457.277	140.38
460.17	108.654
463.063	84.9727
465.955	68.1279
468.848	6.56152
471.741	51.8633
474.634	19.8516
477.526	42.0615
480.419	136.423
483.312	84.2148
486.204	96.3516
489.097	132.302
491.99	147.105
494.882	101.957
497.775	117.172
500.668	36.3272
503.561	37.8047
506.453	16.3105
509.346	91.7676
512.239	66.0469
515.131	61.6494
518.024	157.738
520.917	106.37
523.809	87.667
526.702	142.207
529.595	170.158
532.488	111.233
535.38	168.017
538.273	148.736
541.166	189.239
544.058	172.615
546.951	197.019
549.844	191.059
552.736	252.378
555.629	208.876
558.522	168.088
561.415	289.146
564.307	257.24
567.2	220.478
570.093	167.713
572.985	147.387
575.878	166.307
578.771	48.9853
581.663	25.7158
584.556	34.9688
587.449	15.0928
590.342	11.0645
593.234	25.6924
596.127	16.4814
599.02	44.9111
601.912	72.2969
604.805	82.2041
607.698	141.142
610.591	173.561
613.483	256.497
616.376	349.62
619.269	385.739
622.161	467.5
625.054	416.054
627.947	502.346
630.839	569.973
633.732	443.402
636.625	460.409
639.518	509.067
642.41	484.117
645.303	392.346
648.196	468.838
651.088	416.269
653.981	349.81
656.874	295.879
659.766	338.882
662.659	272.651
665.552	325.963
668.445	368.476
671.337	359.93
674.23	327.104
677.123	303.817
680.015	434.639
682.908	410.336
685.801	446.101
688.693	427.416
691.586	394.128
694.479	347.124
697.372	324.382
700.264	273.39
703.157	245.482
706.05	170.488
708.942	141.957
711.835	114.529
714.728	102.368
717.62	74.8071
720.513	106.96
723.406	98.1748
726.299	24.9145
729.191	23.7363
732.084	43.0317
734.977	59.8745
737.869	16.8574
740.762	35.8057
743.655	40.2925
746.548	17.3096
749.44	24.9634
752.333	25.3628
755.226	29.5689
758.118	31.6792
761.011	33.1196
763.904	35.2017
766.796	20.644
769.689	20.2324
772.582	10.6265
775.475	7.42627
778.367	21.7793
781.26	11.8667
784.153	25.4663
787.045	51.0469
789.938	40.207
792.831	78.916
795.723	80.9331
798.616	67.7046
801.509	63.665
804.402	53.9116
807.294	79.937
810.187	20.7224
813.08	36.1267
815.972	80.1702
818.865	66.2761
821.758	41.1174
824.65	15.2544
827.543	27.7913
830.436	29.7756
833.329	11.8801
836.221	41.4087
839.114	34.1785
842.007	42.7463
844.899	49.8208
847.792	57.9858
850.685	73.0554
853.577	92.8601
856.47	102.546
859.363	177.312
862.256	157.045
865.148	160.869
868.041	204.25
870.934	210.298
873.826	186.869
876.719	195.825
879.612	165.83
882.505	148.363
885.397	158.052
888.29	163.347
891.183	150.723
894.075	174.316
896.968	141.573
899.861	173.6
902.753	244.818
905.646	192.446
908.539	178.952
911.432	212.397
914.324	186.188
917.217	159.464
920.11	193.293
923.002	151.894
925.895	141.785
928.788	75.9334
931.68	49.0935
934.573	38.894
937.466	42.5857
940.359	24.5879
943.251	7.94092
946.144	5.53638
949.037	34.2847
951.929	15.9348
954.822	47.5825
957.715	23.187
960.607	0.237549
963.5	13.2246
966.393	8.91016
969.285	19.2715
972.178	1.83276
975.071	2.82251
977.964	11.717
980.856	19.4373
983.749	31.6379
986.642	14.5239
989.534	19.0154
992.427	19.3982
995.32	2.21338
998.212	5.94458
1001.11	2.78027
1004	24.0244
1006.89	44.366
1009.78	50.0933
1012.68	69.6296
1015.57	82.7527
1018.46	82.4448
1021.35	140.621
1024.25	92.6611
1027.14	121.415
1030.03	137.461
1032.92	159.963
1035.82	153.82
1038.71	124.322
1041.6	96.1768
1044.5	37.6289
1047.39	6.7981
1050.28	5.60083
1053.17	42.8481
1056.07	19.3831
1058.96	33.2747
1061.85	16.4526
1064.74	38.8308
1067.64	29.5625
1070.53	55.553
1073.42	32.3574
1076.32	5.77344
1079.21	33.0918
1082.1	40.1648
1084.99	42.8064
