Measurement: Raman, 532 nm, unoriented, Raman Data Processed
Mineral: Kemmlitzite
Rruff sample: R070663
Ideal chemistry: SrAl_3_(As^5+^O_4_)(S^6+^O_4_)(OH)_6_
Locality: Falotta, Tinizong (Tinzen), Sursass (Oberhalbstein), Grischun (Grisons; Graub√ºnden), Switzerland
Source: Michael Scott
Description: Black bleb included in rhodonite
Raman shift (cm-1)	intensity
167.019	0
169.912	0.224121
172.805	27.9727
175.697	5.06616
178.59	99.8589
181.483	69.3264
184.376	126.069
187.268	81.5957
190.161	142.959
193.054	56.22
195.946	94.6768
198.839	73.1528
201.732	129.728
204.625	198.283
207.517	101.597
210.41	142.214
213.303	173.987
216.195	269.192
219.088	215.147
221.981	261.521
224.873	335.449
227.766	215.573
230.659	223.259
233.552	268.978
236.444	213.761
239.337	149.342
242.23	114.151
245.122	63.4211
248.015	101.973
250.908	101.125
253.8	43.9907
256.693	31.0051
259.586	45.8003
262.478	23.8091
265.371	48.563
268.264	74.8994
271.157	9.33862
274.049	11.0115
276.942	26.198
279.835	15.6968
282.727	50.0757
285.62	69.8125
288.513	14.6577
291.406	74.4416
294.298	9.62842
297.191	39.9858
300.084	71.1794
302.976	61.6043
305.869	149.128
308.762	96.052
311.654	105.254
314.547	21.8833
317.44	35.0137
320.332	14.9036
323.225	48.7615
326.118	32.9023
329.011	9.86719
331.903	5.4646
334.796	24.9744
337.689	11.5352
340.581	28.4866
343.474	24.8552
346.367	66.1606
349.26	89.3447
352.152	135.656
355.045	167.048
357.938	138.972
360.83	172.284
363.723	187.537
366.616	240.265
369.508	263.854
372.401	211.032
375.294	311.855
378.187	299.575
381.079	246.727
383.972	178.702
386.865	204.387
389.757	167.744
392.65	143.852
395.543	198.414
398.435	191.551
401.328	224.579
404.221	258.649
407.113	327.753
410.006	372.916
412.899	353.096
415.792	448.291
418.684	310.256
421.577	407.347
424.47	401.072
427.362	391.769
430.255	331.222
433.148	325.034
436.041	291.311
438.933	237.232
441.826	135.629
444.719	183.26
447.611	59.5981
450.504	89.0735
453.397	82.7341
456.289	38.4873
459.182	76.9192
462.075	64.5007
464.967	87.1738
467.86	106.299
470.753	188.765
473.646	186.922
476.538	182.101
479.431	211.328
482.324	284.57
485.216	356.394
488.109	288.152
491.002	340.858
493.894	308.323
496.787	285.492
499.68	265.53
502.572	263.209
505.465	296.267
508.358	235.329
511.251	121.703
514.143	75.9863
517.036	56.1592
519.929	19.6304
522.821	18.9373
525.714	17.5544
528.607	40.8213
531.5	12.1245
534.392	22.3523
537.285	68.1401
540.178	51.6606
543.07	144.797
545.963	254.064
548.856	171.303
551.748	247.189
554.641	207.033
557.534	348.835
560.427	338.284
563.319	393.487
566.212	390.993
569.105	413.41
571.997	388.484
574.89	305.663
577.783	199.715
580.675	117.74
583.568	150.723
586.461	20.5625
589.354	29.9102
592.246	10.1099
595.139	11.7988
598.032	73.4434
600.924	11.394
603.817	116.039
606.71	200.176
609.602	235.53
612.495	325.308
615.388	354.854
618.28	408.721
621.173	359.194
624.066	432.455
626.959	448.741
629.851	457.612
632.744	518.468
635.637	431.57
638.529	522.478
641.422	498.809
644.315	499.156
647.207	475.85
650.1	419.261
652.993	431.052
655.886	412.43
658.778	503.817
661.671	511.764
664.564	586.616
667.456	658.715
670.349	616.801
673.242	742.852
676.135	756.316
679.027	650.231
681.92	766.753
684.813	818.467
687.705	884.248
690.598	871.412
693.491	868.866
696.383	894.149
699.276	797.129
702.169	683.808
705.062	573.415
707.954	549.518
710.847	431.439
713.74	316.584
716.632	278.876
719.525	355.08
722.418	220.95
725.31	226.107
728.203	166.701
731.096	151.233
733.989	172.602
736.881	54.8691
739.774	135.747
742.667	29.8455
745.559	45.029
748.452	9.87207
751.345	13.2271
754.237	45.8503
757.13	26.9155
760.023	7.51489
762.915	18.1663
765.808	18.6201
768.701	22.1931
771.594	6.51587
774.486	21.1594
777.379	10.2246
780.272	26.6907
783.164	28.1033
786.057	9.98169
788.95	51.3379
791.842	26.8997
794.735	73.532
797.628	90.1726
800.521	61.0408
803.413	55.718
806.306	123.923
809.199	139.68
812.091	154.109
814.984	116.714
817.877	102.383
820.769	159.228
823.662	114.473
826.555	131.697
829.447	186.439
832.34	152.744
835.233	97.7439
838.126	138.068
841.018	243.666
843.911	206.625
846.804	266.023
849.696	263.143
852.589	376.267
855.482	416.656
858.375	520.326
861.267	557.967
864.16	631.935
867.053	577.498
869.945	562.475
872.838	515.609
875.731	477.688
878.623	408.362
881.516	391.802
884.409	352.743
887.302	358.278
890.194	318.48
893.087	344.563
895.98	460.351
898.872	356.383
901.765	393.828
904.658	397.034
907.55	470.957
910.443	442.013
913.336	383.746
916.229	379.74
919.121	318.379
922.014	372.501
924.907	281.579
927.799	270.781
930.692	248.435
933.585	220.154
936.477	149.194
939.37	185.137
942.263	156.517
945.155	124.885
948.048	115.54
950.941	114.104
953.834	14.5786
956.726	20.1658
959.619	4.0896
962.512	36.7239
965.404	10.2178
968.297	12.2707
971.19	8.32471
974.082	26.8452
976.975	11.8928
979.868	26.0017
982.761	35.8757
985.653	0.873779
988.546	12.6008
991.439	41.781
994.331	17.6306
997.224	29.4375
1000.12	44.3582
1003.01	37.8518
1005.9	71.2781
1008.79	125.408
1011.69	120.745
1014.58	112.269
1017.47	184.732
1020.37	241.438
1023.26	252.283
1026.15	287.595
1029.04	313.507
1031.94	313.863
1034.83	251.233
1037.72	271.29
1040.62	248.065
1043.51	209.331
1046.4	236.986
1049.29	161.266
1052.18	66.7602
1055.08	94.8291
1057.97	33.0732
1060.86	81.3364
1063.76	49.1372
1066.65	58.3787
1069.54	35.1619
1072.43	39.2129
1075.33	85.5984
1078.22	30.2771
1081.11	104.683
1084.01	58.6074
1086.9	59.2173
1089.79	26.1331
1092.68	94.0513
1095.58	15.9648
1098.47	63.6992
1101.36	109.984
1104.25	18.5461
1107.15	44.4299
1110.04	40.8682
1112.93	70.7065
1115.83	42.344
1118.72	105.349
1121.61	23.749
1124.5	8.13892
1127.4	90.2937
1130.29	43.886
1133.18	6.70386
1136.07	23.0859
1138.97	56.2217
1141.86	47.8787
1144.75	50.0842
1147.64	38.199
1150.54	30.9888
1153.43	58.2532
1156.32	57.1362
1159.21	48.0557
1162.11	25.5642
1165	43.2205
1167.89	57.3264
1170.79	50.304
1173.68	65.9648
1176.57	19.4783
1179.46	29.5102
1182.36	60.5549
1185.25	57.7293
1188.14	69.2903
1191.04	76.5881
1193.93	29.8625
1196.82	33.2305
1199.71	64.9629
1202.61	91.8164
1205.5	109.953
1208.39	51.1645
1211.28	49.4336
1214.18	80.3564
1217.07	36.4009
1219.96	55.866
1222.86	30.0581
1225.75	38.0986
1228.64	47.7105
1231.53	53.1179
1234.42	4.27734
1237.32	47.1585
1240.21	54.5195
1243.1	15.8933
1246	39.1123
1248.89	82.981
1251.78	29.3826
1254.67	71.178
1257.57	70.4661
1260.46	29.1921
1263.35	88.6436
1266.24	90.5923
1269.14	18.5689
1272.03	85.9941
1274.92	22.7883
1277.82	73.7705
1280.71	11.5532
1283.6	67.1777
1286.49	42.8735
1289.39	44.6965
1292.28	55.667
1295.17	65.6819
1298.07	44.6414
1300.96	37.5195
1303.85	39.239
