Measurement: Raman, 532 nm, unoriented, Raman Data Processed
Mineral: Kempite
Rruff sample: R070679
Ideal chemistry: Mn^2+^_2_Cl(OH)_3_
Locality: Oktyabr'sky mine, Noril'sk, Putoran Mts, Taymyrskiy Autonomous Okrug, Eastern-Siberian Region, Russia
Source: Michael Scott
Description: Metallic fragment with a green tinge, associated with pale grey magnetite, polished and embedded in epoxy
Raman shift (cm-1)	intensity
159.095	0
161.987	31.1448
164.88	51.0859
167.773	81.6522
170.665	132.285
173.558	83.2186
176.451	81.3788
179.344	65.0894
182.236	70.2361
185.129	86.9072
188.022	70.8803
190.914	43.1044
193.807	82.4435
196.7	63.9483
199.592	32.6024
202.485	16.266
205.378	18.6406
208.27	10.0452
211.163	7.78979
214.056	16.3543
216.949	9.90204
219.841	12.1572
222.734	9.84912
225.627	23.5812
228.519	5.70654
231.412	52.6766
234.305	52.7947
237.197	13.3985
240.09	103.313
242.983	85.6763
245.876	119.74
248.768	109.045
251.661	178.197
254.554	178.14
257.446	188.74
260.339	234.823
263.232	289.413
266.125	289.786
269.017	358.345
271.91	449.497
274.803	588.146
277.695	756.757
280.588	857.105
283.481	1060.87
286.373	1321.73
289.266	1591.33
292.159	1590.45
295.051	1071.94
297.944	579.664
300.837	326.239
303.73	143.935
306.622	136.637
309.515	99.0765
312.408	129.192
315.3	172.887
318.193	196.685
321.086	258.198
323.978	220.587
326.871	204.558
329.764	117.542
332.657	154.947
335.549	165.218
338.442	174.18
341.335	166.279
344.227	171.133
347.12	199.782
350.013	259.697
352.906	247.738
355.798	219.19
358.691	247.832
361.584	285.337
364.476	243.624
367.369	213.417
370.262	216.607
373.154	165.414
376.047	148.817
378.94	109.624
381.832	41.4607
384.725	43.0769
387.618	5.03876
390.511	1.06787
393.403	5.33936
396.296	1.65845
399.189	52.7478
402.081	19.4991
404.974	10.7473
407.867	2.53397
410.76	9.021
413.652	10.8795
416.545	0.200928
419.438	24.7764
422.33	8.64056
425.223	41.6301
428.116	21.231
431.008	17.4514
433.901	29.2288
436.794	50.201
439.687	38.525
442.579	59.113
445.472	25.3834
448.365	69.8879
451.257	76.4045
454.15	38.4716
457.043	50.3616
459.935	15.1982
462.828	31.1919
465.721	29.7522
468.613	24.7202
471.506	60.23
474.399	26.7525
477.291	31.2029
480.184	57.8022
483.077	31.023
485.97	37.3079
488.862	27.8917
491.755	34.3836
494.648	54.7497
497.54	45.4126
500.433	2.91653
503.326	4.88962
506.219	24.7125
509.111	73.4911
512.004	39.1776
514.897	62.3884
517.789	18.8603
520.682	31.9795
523.575	93.182
526.467	41.0882
529.36	2.7738
532.253	60.2326
535.145	48.5192
538.038	29.3343
540.931	0.61441
543.824	65.2296
546.716	45.5269
549.609	50.3716
552.502	59.5887
555.394	72.528
558.287	41.4198
561.18	69.079
564.072	51.5458
566.965	41.5256
569.858	31.5031
572.751	37.2673
575.643	39.7945
578.536	33.9899
581.429	45.3303
584.321	45.9398
587.214	21.9386
590.107	23.9034
593	37.5497
595.892	3.44817
598.785	29.8781
601.678	25.7286
604.57	12.2581
607.463	26.276
610.356	15.7126
613.248	13.3128
616.141	7.88426
619.034	0.12706
621.927	18.4641
624.819	1.84091
627.712	40.4098
630.605	35.8362
633.497	27.0995
636.39	17.9174
639.283	17.8522
642.175	17.0583
645.068	59.4336
647.961	24.7394
650.854	37.4518
653.746	13.7761
656.639	38.3968
659.532	7.92789
662.424	44.9212
665.317	16.8074
668.21	31.2887
671.102	14.0303
673.995	26.415
676.888	42.9316
679.78	50.7011
682.673	52.9028
685.566	16.8861
688.459	11.6985
691.351	12.936
694.244	23.9269
697.137	52.9469
700.029	48.5847
702.922	59.018
705.815	51.5585
708.707	60.6111
711.6	36.9276
714.493	23.739
717.386	31.8045
720.278	64.399
723.171	23.1309
726.064	62.5043
728.956	18.5995
731.849	38.1796
734.742	66.5846
737.635	45.2256
740.527	32.5142
743.42	32.0699
746.313	44.3672
749.205	41.0596
752.098	58.3603
754.991	47.5899
757.883	14.0631
760.776	52.1136
763.669	17.7688
766.562	0.788467
769.454	8.01848
772.347	38.6769
775.24	42.6246
778.132	11.1912
781.025	16.9539
783.918	18.2797
786.81	28.112
789.703	46.8771
792.596	11.6245
795.489	43.5124
798.381	33.4429
801.274	15.037
804.167	4.27437
807.059	26.0573
809.952	54.7369
812.845	46.2095
815.737	52.2523
818.63	42.6331
821.523	26.453
824.415	31.9551
827.308	48.0989
830.201	28.8783
833.093	64.0149
835.986	42.9806
838.879	10.7058
841.772	30.633
844.664	36.4416
847.557	38.9324
850.45	54.0913
853.342	38.3943
856.235	69.5978
859.128	29.8538
862.02	23.0284
864.913	52.0079
867.806	77.5828
870.699	32.0297
873.591	27.5161
876.484	29.8605
879.377	2.98355
882.269	43.4796
885.162	26.7031
888.055	45.7815
890.947	27.5501
893.84	42.2818
896.733	26.8828
899.626	38.7382
902.518	21.5735
905.411	9.49248
908.304	14.4349
911.196	16.1919
914.089	53.2301
916.982	40.9937
919.875	26.844
922.767	39.7825
925.66	29.3756
928.553	14.3196
931.445	29.2897
934.338	22.5629
937.231	30.5517
940.123	53.6255
943.016	32.2419
945.909	21.7502
948.802	44.4026
951.694	9.72388
954.587	19.8107
957.48	27.5613
960.372	2.97517
963.265	12.7662
966.158	24.997
969.05	34.2476
971.943	13.3368
974.836	30.1092
977.729	17.3893
980.621	8.19144
983.514	7.15631
986.407	17.1048
989.299	27.8494
992.192	18.8067
995.085	26.571
997.977	6.24751
1000.87	22.7341
1003.76	24.6846
1006.65	15.4386
1009.55	19.6802
1012.44	45.394
1015.33	33.3977
1018.23	20.3347
1021.12	9.98865
1024.01	58.2976
1026.9	38.482
1029.8	35.2598
1032.69	63.8475
1035.58	32.8838
1038.47	61.9086
1041.37	33.4554
1044.26	59.7267
1047.15	32.072
1050.05	23.7377
1052.94	41.5573
1055.83	52.0987
1058.72	64.4214
1061.62	40.1037
1064.51	41.2216
1067.4	29.596
1070.3	38.3561
1073.19	43.4679
1076.08	28.822
1078.97	24.3367
1081.87	40.0941
1084.76	21.1562
1087.65	47.0589
1090.54	26.3725
1093.44	26.714
1096.33	25.4996
1099.22	7.34288
1102.12	4.66068
1105.01	11.788
1107.9	0.703491
1110.79	27.1509
1113.68	0.31015
1116.58	21.3297
1119.47	29.7485
1122.36	9.11581
1125.26	40.1029
1128.15	13.4035
1131.04	45.5521
1133.93	27.3959
1136.83	17.9237
1139.72	17.0213
1142.61	20.2627
1145.51	11.2236
1148.4	35.0686
1151.29	26.5451
1154.18	26.6301
1157.08	20.3575
1159.97	18.2425
1162.86	31.9756
1165.75	21.1059
1168.65	27.3496
1171.54	8.63454
1174.43	32.8002
1177.33	53.9479
1180.22	47.5194
1183.11	16.177
1186	13.5734
1188.9	9.99179
1191.79	18.0385
1194.68	28.147
1197.57	16.7795
1200.47	10.5122
1203.36	61.4456
1206.25	6.81685
1209.14	1.63069
1212.04	49.8271
1214.93	37.597
1217.82	35.6921
1220.71	17.3719
1223.61	30.2259
1226.5	45.2492
1229.39	33.2339
1232.29	21.1417
1235.18	47.6408
1238.07	34.6602
1240.96	40.301
1243.86	39.7821
1246.75	1.80331
1249.64	16.139
1252.54	32.5876
1255.43	22.0149
1258.32	9.16087
1261.21	27.6049
1264.11	16.3639
1267	12.8877
1269.89	16.8312
1272.78	32.4649
1275.68	17.5626
1278.57	6.62175
1281.46	25.5103
1284.36	10.074
1287.25	0.650604
1290.14	29.1935
1293.03	0.643234
1295.92	1.48619
1298.82	9.80341
1301.71	0.039581
