Measurement: Raman, 780 nm, unoriented, Raman Data Processed
Mineral: Kempite
Rruff sample: R070679
Ideal chemistry: Mn^2+^_2_Cl(OH)_3_
Locality: Oktyabr'sky mine, Noril'sk, Putoran Mts, Taymyrskiy Autonomous Okrug, Eastern-Siberian Region, Russia
Source: Michael Scott
Description: Metallic fragment with a green tinge, associated with pale grey magnetite, polished and embedded in epoxy
Raman shift (cm-1)	intensity
178.304	0
181.197	21.7234
184.09	7.06403
186.982	26.421
189.875	25.8456
192.768	30.4085
195.66	31.5023
198.553	16.0115
201.446	28.3064
204.339	30.7058
207.231	6.14246
210.124	6.4028
213.017	1.82855
215.909	8.85883
218.802	21.918
221.695	23.8008
224.588	9.27487
227.48	1.94159
230.373	2.44003
233.266	2.26505
236.158	8.19192
239.051	12.5409
241.944	35.5621
244.836	45.1812
247.729	31.3334
250.622	33.2063
253.514	52.2394
256.407	42.7196
259.3	64.8408
262.193	83.7937
265.085	72.6173
267.978	85.8506
270.871	89.4188
273.763	96.0764
276.656	114.088
279.549	139.084
282.442	158.399
285.334	224.19
288.227	289.671
291.12	315.053
294.012	263.395
296.905	139.039
299.798	72.2609
302.69	25.6177
305.583	11.9036
308.476	21.4424
311.368	25.6197
314.261	30.6815
317.154	35.0045
320.047	31.3123
322.939	38.3434
325.832	36.5167
328.725	30.998
331.617	52.1617
334.51	59.9783
337.403	96.9804
340.296	75.5438
343.188	73.2711
346.081	32.6862
348.974	15.5302
351.866	3.28677
354.759	6.01791
357.652	21.7539
360.544	1.57031
363.437	9.45904
366.33	34.5801
369.223	49.1692
372.115	62.2915
375.008	56.3666
377.901	13.0635
380.793	13.2344
383.686	22.8148
386.579	15.1362
389.471	15.6857
392.364	19.1921
395.257	10.957
398.149	6.605
401.042	10.3597
403.935	6.50058
406.828	3.59605
409.72	21.2424
412.613	11.4753
415.506	0.900818
418.399	13.9427
421.291	0.916687
424.184	1.62007
427.077	17.6537
429.969	27.6259
432.862	12.6771
435.755	2.48514
438.647	19.0252
441.54	21.2679
444.433	25.7908
447.325	26.6707
450.218	23.1823
453.111	13.8343
456.004	12.6475
458.896	17.2424
461.789	10.5971
464.682	11.0754
467.574	15.9119
470.467	11.5892
473.36	11.2467
476.252	29.8795
479.145	19.6826
482.038	26.7912
484.931	11.3734
487.823	20.1074
490.716	30.3045
493.609	22.8132
496.501	1.36226
499.394	25.6194
502.287	13.6837
505.18	4.11449
508.072	16.1541
510.965	11.7021
513.858	25.8549
516.75	15.711
519.643	13.2105
522.536	8.054
525.428	18.4395
528.321	23.6955
531.214	10.6989
534.106	14.7543
536.999	18.7641
539.892	14.2739
542.785	32.8257
545.677	28.3523
548.57	60.0358
551.463	44.6926
554.355	34.9937
557.248	29.4055
560.141	23.6595
563.034	26.0724
565.926	19.5227
568.819	28.1546
571.712	4.62175
574.604	6.23016
577.497	25.8828
580.39	2.80112
583.282	0.45166
586.175	24.8312
589.068	18.6739
591.961	5.94054
594.853	25.489
597.746	9.61702
600.639	15.9397
603.531	1.31792
606.424	4.56026
609.317	13.018
612.21	9.86565
615.102	16.6472
617.995	7.56451
620.888	11.927
623.78	24.8396
626.673	9.19362
629.566	14.9511
632.458	7.08167
635.351	9.11839
638.244	15.1168
641.136	13.1823
644.029	8.16402
646.922	26.1251
649.815	0.070847
652.707	11.2015
655.6	7.20917
658.493	23.9473
661.385	10.3098
664.278	8.40234
667.171	12.0138
670.063	21.9651
672.956	15.6336
675.849	19.1386
678.742	16.6452
681.634	26.7357
684.527	7.16139
687.42	14.214
690.312	7.97386
693.205	13.0998
696.098	20.9777
698.99	22.6826
701.883	19.1928
704.776	18.9369
707.669	20.3725
710.561	22.5295
713.454	17.5063
716.347	6.12085
719.239	17.3641
722.132	11.1136
725.025	8.19913
727.918	13.0496
730.81	33.1804
733.703	13.6308
736.596	29.5642
739.488	17.4708
742.381	2.22169
745.274	7.60202
748.166	11.2873
751.059	21.9971
753.952	16.0841
756.845	1.6945
759.737	7.02006
762.63	10.3248
765.523	7.98405
768.415	1.55876
771.308	6.78183
774.201	17.2804
777.093	9.22122
779.986	23.5163
782.879	4.74159
785.771	13.4675
788.664	18.9049
791.557	8.03473
794.45	11.1516
797.342	0.789215
800.235	23.7091
803.128	1.80951
806.02	11.0872
808.913	2.87949
811.806	17.3026
814.698	15.3393
817.591	20.6746
820.484	7.72472
823.377	16.669
826.269	24.5061
829.162	13.7003
832.055	24.0396
834.947	25.2933
837.84	1.38692
840.733	25.5444
843.625	9.50479
846.518	26.6579
849.411	16.614
852.304	12.2419
855.196	34.9248
858.089	24.3874
860.982	16.3276
863.875	21.7299
866.767	20.4486
869.66	19.022
872.553	7.84016
875.445	15.2001
878.338	9.5894
881.231	7.8663
884.123	12.3374
887.016	19.5094
889.909	20.6059
892.802	12.3322
895.694	16.9113
898.587	5.73697
901.48	24.9302
904.372	4.26271
907.265	0.466736
910.158	11.4957
913.05	27.8188
915.943	0.180496
918.836	5.81638
921.729	12.6164
924.621	8.72365
927.514	13.7832
930.407	1.71989
933.299	14.3262
936.192	14.9212
939.085	13.9079
941.977	16.7841
944.87	27.0979
947.763	19.6921
950.655	17.798
953.548	13.6383
956.441	16.1467
959.334	17.231
962.226	12.1581
965.119	16.3672
968.012	2.70064
970.904	17.4284
973.797	23.0594
976.69	16.0694
979.582	12.2359
982.475	10.1892
985.368	16.1892
988.261	11.2916
991.153	22.613
994.046	7.55316
996.939	4.19379
999.831	10.5889
1002.72	7.38208
1005.62	2.35094
1008.51	7.63741
1011.4	7.75102
1014.29	14.1477
1017.19	5.93399
1020.08	12.6082
1022.97	5.48265
1025.87	18.8546
1028.76	4.85832
1031.65	16.761
1034.54	15.6686
1037.44	23.0847
1040.33	3.8271
1043.22	12.845
1046.12	35.0919
1049.01	13.9105
1051.9	29.7868
1054.79	28.3667
1057.68	26.8282
1060.58	30.8188
1063.47	28.5
1066.36	16.939
1069.26	7.64316
1072.15	17.1664
1075.04	6.09007
1077.93	21.4631
1080.83	19.4935
1083.72	1.13011
1086.61	6.40112
1089.51	14.9794
1092.4	15.7124
1095.29	0.363876
1098.18	8.67654
1101.08	8.87605
1103.97	19.0932
1106.86	17.191
1109.75	7.25224
1112.65	6.81111
1115.54	6.21905
1118.43	7.61276
1121.33	12.7938
1124.22	11.0948
1127.11	14.9055
1130	11.55
1132.9	11.279
1135.79	25.5755
1138.68	15.6929
1141.57	18.5312
1144.47	4.63025
1147.36	20.1512
1150.25	7.42552
1153.14	7.04158
1156.04	8.74066
1158.93	0.290756
1161.82	7.57683
1164.71	10.7465
1167.61	27.8203
1170.5	9.95132
1173.39	7.21225
1176.29	10.7409
1179.18	1.09766
1182.07	6.06796
1184.96	8.47435
1187.86	7.6302
1190.75	27.0873
1193.64	21.5068
1196.54	24.8197
1199.43	11.129
1202.32	4.9442
1205.21	9.72343
1208.11	20.1934
1211	14.9705
1213.89	24.9817
1216.78	31.7239
1219.68	13.6576
1222.57	24.3341
1225.46	19.8553
1228.36	12.9643
1231.25	18.7321
1234.14	9.56265
1237.03	23.4228
1239.93	20.3725
1242.82	25.7836
1245.71	2.64052
1248.6	25.5086
1251.5	26.3877
1254.39	6.57906
1257.28	29.4385
1260.17	27.0775
1263.07	30.2251
1265.96	30.7899
1268.85	8.97536
1271.74	19.7893
1274.64	13.6419
1277.53	19.5251
1280.42	9.49704
1283.32	19.9698
1286.21	14.7717
1289.1	2.40221
