Measurement: Raman, 532 nm, unoriented, Raman Data Processed
Mineral: Kenoargentotetrahedrite-(Fe)
Rruff sample: R061081
Ideal chemistry: Ag^1+^_6_(Cu^1+^_4_Fe^2+^_2_)Sb_4_S^2-^_12_[box]
Locality: Sadie mine, Elsa, Yukon, Canada
Source: Lloyd Twaites
Description: Dark gray metallic massive
Raman shift (cm-1)	intensity
116.262	0
119.637	64.9127
123.011	209.135
126.386	291.837
129.761	337.027
133.136	292.713
136.511	252.333
139.886	257.9
143.26	191.826
146.635	187.99
150.01	177.417
153.385	161.027
156.76	110.154
160.134	112.186
163.509	115.816
166.884	98.0194
170.259	99.6627
173.634	92.0952
177.008	68.7182
180.383	50.5803
183.758	37.2346
187.133	29.2239
190.508	22.5859
193.883	13.4001
197.257	9.98761
200.632	6.66107
204.007	7.12366
207.382	0.62793
210.757	1.86871
214.131	8.4035
217.506	16.1617
220.881	12.8628
224.256	17.8459
227.631	5.47546
231.006	7.35199
234.38	5.84064
237.755	5.94678
241.13	13.2021
244.505	44.4159
247.88	46.1489
251.254	39.3998
254.629	75.616
258.004	87.5925
261.379	74.0426
264.754	101.615
268.128	157.967
271.503	166.981
274.878	188.46
278.253	247.857
281.628	270.232
285.003	332.004
288.377	327.104
291.752	381.951
295.127	384.032
298.502	418.141
301.877	423.29
305.252	473.249
308.626	503.629
312.001	534.58
315.376	564.122
318.751	586.737
322.125	636.379
325.5	671.277
328.875	730.623
332.25	782.058
335.625	837.085
339	899.322
342.375	923.524
345.749	914.285
349.124	842.301
352.499	668.883
355.874	431.171
359.248	309.924
362.623	160.159
365.998	81.4455
369.373	31.3761
372.748	29.6581
376.123	3.09961
379.497	12.8854
382.872	8.63251
386.247	9.84714
389.622	9.77872
392.997	2.0557
396.372	4.28262
399.746	2.97211
403.121	3.83307
406.496	6.7247
409.871	11.6975
413.246	29.4719
416.62	44.7043
419.995	23.2639
423.37	27.8917
426.745	35.4831
430.12	2.28757
433.494	17.8748
436.869	27.2263
440.244	27.6341
443.619	26.843
446.994	5.38736
450.368	34.822
453.743	6.94626
457.118	26.6998
460.493	30.6172
463.868	12.0274
467.243	42.5457
470.617	17.2205
473.992	24.5191
477.367	19.4341
480.742	27.8451
484.117	17.0783
487.491	24.7193
490.866	13.3626
494.241	23.6074
497.616	26.2346
500.991	23.9243
504.366	13.9449
507.74	19.0918
511.115	19.7427
514.49	21.0056
517.865	7.13846
521.24	18.8374
524.614	29.1203
527.989	17.2303
531.364	28.5494
534.739	3.22476
538.114	2.56168
541.489	4.19467
544.863	12.9002
548.238	6.91342
551.613	21.4933
554.988	27.2301
558.363	21.2184
561.737	21.9262
565.112	27.2038
568.487	22.4843
571.862	18.7287
575.237	19.8057
578.611	3.6568
581.986	6.47415
585.361	30.7159
588.736	20.8089
592.111	3.50687
595.486	21.9084
598.86	3.6669
602.235	10.2589
605.61	19.0897
608.985	22.2248
612.36	35.3329
615.735	10.9191
619.109	16.0667
622.484	14.3925
625.859	6.58661
629.234	10.2362
632.609	3.78934
635.983	1.00656
639.358	3.06448
642.733	15.89
646.108	4.96399
649.483	13.8055
652.857	26.2044
656.232	20.8246
659.607	20.2095
662.982	20.3627
666.357	16.2941
669.731	3.3551
673.106	7.64316
676.481	1.53735
679.856	20.555
683.231	2.69849
686.606	8.85388
689.98	20.9348
693.355	18.3767
696.73	11.1203
700.105	1.96725
703.48	9.10709
706.855	3.05756
710.229	11.2759
713.604	13.4623
716.979	7.63597
720.354	10.5453
723.729	14.0209
727.103	18.5602
730.478	14.8803
733.853	19.3867
737.228	16.7959
740.603	0.830414
743.977	2.06426
747.352	19.8737
750.727	2.50995
754.102	25.2143
757.477	0.183304
760.852	17.1295
764.226	24.0469
767.601	19.8867
770.976	5.66794
774.351	4.8376
777.726	5.99873
781.1	7.00851
784.475	4.97551
787.85	8.04022
791.225	14.4949
794.6	11.455
797.975	12.9792
801.349	14.9991
804.724	9.56709
808.099	3.93372
811.474	8.33458
814.849	12.5362
818.223	26.3461
821.598	18.8087
824.973	20.0258
828.348	10.3773
831.723	10.05
835.097	34.7192
838.472	20.9877
841.847	20.0473
845.222	23.2797
848.597	16.7443
851.972	22.554
855.346	11.4917
858.721	23.4187
862.096	10.9405
865.471	23.8594
868.846	9.91179
872.221	22.6282
875.595	4.70541
878.97	8.70526
882.345	12.7071
885.72	7.119
889.095	7.52156
892.469	8.09344
895.844	9.26294
899.219	11.6569
902.594	15.6671
905.969	20.7507
909.343	16.3339
912.718	5.50234
916.093	14.1164
919.468	7.50659
922.843	7.6532
926.217	23.6307
929.592	4.83838
932.967	14.5979
936.342	13.0527
939.717	21.3248
943.092	19.5016
946.466	27.1248
949.841	11.0564
953.216	20.1451
956.591	8.60565
959.966	0.918411
963.341	28.8035
966.715	6.81448
970.09	13.1041
973.465	26.8314
976.84	3.23508
980.215	15.3973
983.589	30.4292
986.964	16.385
990.339	11.6162
993.714	18.5756
997.089	10.5646
1000.46	16.8519
1003.84	8.60326
1007.21	1.82605
1010.59	4.65556
1013.96	15.611
1017.34	9.69971
1020.71	7.8255
1024.09	15.416
1027.46	20.2228
1030.84	21.4048
1034.21	16.6002
1037.59	19.9989
1040.96	14.8645
1044.34	22.8781
1047.71	13.7963
1051.09	12.6857
1054.46	15.3718
1057.84	20.9791
1061.21	20.5152
1064.59	18.1852
1067.96	27.6328
1071.33	12.0814
1074.71	32.0399
1078.08	16.6038
1081.46	15.8474
1084.83	35.7631
1088.21	11.1147
1091.58	9.50944
1094.96	7.92238
1098.33	14.277
1101.71	21.587
1105.08	42.2133
1108.46	23.5676
1111.83	28.7935
1115.21	7.41406
1118.58	33.2067
1121.96	6.58008
1125.33	9.98753
1128.71	12.0117
1132.08	31.7369
1135.46	3.77959
1138.83	12.6206
1142.21	14.1434
1145.58	0.508514
1148.95	9.1754
1152.33	13.5593
1155.7	5.09518
1159.08	9.56323
1162.45	0.999527
1165.83	7.64577
1169.2	17.5207
1172.58	15.6164
1175.95	10.1324
1179.33	22.5768
1182.7	18.589
1186.08	20.5195
1189.45	30.1976
1192.83	34.8256
1196.2	14.5676
1199.58	38.736
1202.95	22.435
1206.33	24.7594
1209.7	14.2142
1213.08	16.3803
1216.45	14.9304
1219.83	11.305
1223.2	7.76735
1226.58	11.1047
1229.95	22.3452
1233.33	23.5309
1236.7	23.4738
1240.08	4.83331
1243.45	0.375046
1246.83	19.7188
1250.2	31.8597
1253.58	6.40378
1256.95	38.7309
1260.32	35.0715
1263.7	18.7142
1267.07	6.28686
1270.45	7.58932
1273.82	12.0586
1277.2	16.6395
1280.57	9.56813
1283.95	19.2109
1287.32	20.8924
1290.7	45.3987
1294.07	9.17734
1297.45	15.9128
