Measurement: Raman, 532 nm, unoriented, Raman Data Processed
Mineral: Kentbrooksite
Rruff sample: R110208
Ideal chemistry: (Na,La^3+^)_15_(Ca,La^3+^)_6_Mn^2+^_3_Zr^4+^_3_Nb^5+^Si_25_O_73_(O,OH,H_2_O)_3_(F,Cl)_2_
Locality: Pocos de Caldas plateau, Minas Gerais, Brazil
Source: Gunnar Farber
Description: Red massive crystalline associated with aegirine and nepheline
Raman shift (cm-1)	intensity
182.094	0
184.987	7.15424
187.88	20.7579
190.773	32.8727
193.665	37.9308
196.558	46.4209
199.451	51.4459
202.343	53.7134
205.236	48.6885
208.129	40.4698
211.021	29.3865
213.914	25.7111
216.807	22.2045
219.699	16.3705
222.592	20.6065
225.485	17.0327
228.377	15.8451
231.27	18.5233
234.163	13.954
237.056	11.1112
239.948	7.88544
242.841	6.28999
245.734	6.8959
248.626	4.92697
251.519	0.542938
254.412	0.621902
257.305	10.1913
260.197	13.291
263.09	21.2672
265.983	22.8428
268.875	24.5174
271.768	29.9664
274.661	32.4657
277.553	38.7465
280.446	34.7645
283.339	33.4198
286.232	31.7672
289.124	38.5117
292.017	33.8313
294.91	32.1835
297.802	25.8393
300.695	27.1691
303.588	25.8763
306.481	25.7024
309.373	18.9223
312.266	21.8928
315.159	15.4189
318.051	14.3568
320.944	18.2536
323.837	22.7891
326.729	31.4877
329.622	40.0458
332.515	45.5872
335.408	50.9204
338.3	47.3751
341.193	40.5237
344.086	34.4599
346.978	24.7109
349.871	25.8823
352.764	27.3823
355.656	25.4755
358.549	25.0408
361.442	20.0161
364.334	12.0114
367.227	7.03543
370.12	0.134415
373.012	2.24518
375.905	2.70616
378.798	0.619507
381.691	0.058105
384.583	4.47662
387.476	7.77313
390.369	12.642
393.261	11.2449
396.154	7.56847
399.047	3.33072
401.94	0.271484
404.832	2.87688
407.725	5.40955
410.618	10.9429
413.51	13.1534
416.403	18.9129
419.296	23.0992
422.188	22.3514
425.081	27.9553
427.974	30.7507
430.866	29.2031
433.759	28.0404
436.652	26.9113
439.545	27.33
442.437	29.4213
445.33	30.5179
448.223	24.6127
451.115	24.1458
454.008	16.2491
456.901	14.7399
459.793	16.1957
462.686	9.61826
465.579	11.9174
468.472	8.12767
471.364	6.02475
474.257	2.84679
477.15	1.19037
480.042	1.32147
482.935	0.136108
485.828	0.029373
488.721	0.454773
491.613	2.80371
494.506	10.5287
497.399	16.7334
500.291	24.7363
503.184	26.0905
506.077	31.0712
508.969	37.813
511.862	37.026
514.755	39.2967
517.648	39.7846
520.54	43.5988
523.433	50.5096
526.326	59.8612
529.218	71.8032
532.111	89.2193
535.004	93.4368
537.896	100.671
540.789	103.407
543.682	114.309
546.575	121.43
549.467	125.98
552.36	124.435
555.253	116.458
558.145	111.029
561.038	104.466
563.931	100.896
566.823	94.0025
569.716	90.2056
572.609	84.6268
575.502	74.1184
578.394	53.598
581.287	35.6498
584.18	26.4037
587.072	14.4897
589.965	5.29439
592.858	0.154816
595.75	1.90843
598.643	2.2281
601.536	2.45673
604.428	1.23462
607.321	0.500275
610.214	5.84277
613.107	9.93874
615.999	9.82221
618.892	12.4299
621.785	16.1816
624.677	17.008
627.57	13.2622
630.463	14.2886
633.356	6.9424
636.248	3.99429
639.141	3.02722
642.034	4.34747
644.926	2.16571
647.819	0.231506
650.712	5.04947
653.604	4.63344
656.497	6.21401
659.39	3.93033
662.283	6.82025
665.175	8.91293
668.068	18.0558
670.961	26.2382
673.853	36.5821
676.746	47.9837
679.639	64.4923
682.531	73.6374
685.424	75.7387
688.317	74.6655
691.21	70.618
694.102	66.7135
696.995	59.7992
699.888	59.029
702.78	53.5365
705.673	46.7412
708.566	38.6439
711.458	30.4772
714.351	24.1684
717.244	16.8991
720.136	9.39152
723.029	0.679779
725.922	0.727936
728.815	4.29268
731.707	6.87441
734.6	16.7272
737.493	25.2057
740.385	30.174
743.278	36.4401
746.171	38.4308
749.063	37.9775
751.956	38.2978
754.849	41.8408
757.742	45.1734
760.634	45.5394
763.527	44.5458
766.42	40.0699
769.312	39.5336
772.205	32.3739
775.098	32.5473
777.99	26.0273
780.883	22.7487
783.776	24.1256
786.669	20.5026
789.561	17.9559
792.454	14.7749
795.347	10.6225
798.239	8.27351
801.132	5.61279
804.025	2.40611
806.918	4.87534
809.81	0.125748
812.703	3.10591
815.596	0.915985
818.488	0.456329
821.381	3.82231
824.274	0.48819
827.166	2.31889
830.059	0.088669
832.952	6.86258
835.845	2.62921
838.737	3.65866
841.63	7.73675
844.523	9.66873
847.415	13.1155
850.308	13.669
853.201	10.5335
856.093	11.8475
858.986	11.2314
861.879	11.9232
864.771	8.91182
867.664	6.60994
870.557	6.18127
873.45	3.42505
876.342	2.60669
879.235	2.58939
882.128	1.84474
885.02	0.731293
887.913	3.01573
890.806	4.11735
893.698	9.2467
896.591	14.4022
899.484	16.2663
902.377	21.2915
905.269	18.6795
908.162	16.9924
911.055	14.2452
913.947	12.8189
916.84	15.8978
919.733	20.4438
922.625	25.354
925.518	30.8531
928.411	40.0009
931.304	48.9432
934.196	60.0701
937.089	66.736
939.982	76.6519
942.875	82.0395
945.767	78.6937
948.66	67.8405
951.553	57.1289
954.445	43.3573
957.338	29.7574
960.231	17.0562
963.123	12.1757
966.016	8.63483
968.909	4.67412
971.802	0.892029
974.694	0.641129
977.587	0.570755
980.48	1.12769
983.372	2.52803
986.265	0.42572
989.158	0.971497
992.05	0.762344
994.943	2.23373
997.836	2.00641
1000.73	3.13812
1003.62	7.3994
1006.51	9.27275
1009.41	13.29
1012.3	19.5332
1015.19	22.9264
1018.09	28.1468
1020.98	34.1902
1023.87	37.2826
1026.76	41.1311
1029.66	39.4738
1032.55	42.6169
1035.44	42.4283
1038.33	36.4647
1041.23	27.3393
1044.12	17.9511
1047.01	16.3886
1049.9	11.6961
1052.8	14.6522
1055.69	14.7785
1058.58	21.0535
1061.47	25.6701
1064.37	30.3426
1067.26	41.4217
1070.15	43.3323
1073.05	44.4811
1075.94	47.5771
1078.83	47.4655
1081.72	45.9625
1084.62	36.8563
1087.51	32.5643
1090.4	25.7826
1093.3	20.4776
1096.19	14.7769
1099.08	13.3123
1101.97	9.02889
1104.87	1.68215
1107.76	2.58856
1110.65	0.567436
1113.54	1.60967
1116.44	1.88649
1119.33	0.415054
1122.22	0.390831
1125.12	0.065025
1128.01	1.30888
1130.9	1.59141
1133.79	1.76657
1136.68	1.02927
1139.58	0.19619
1142.47	0.52903
1145.36	1.3493
1148.26	2.92189
1151.15	2.17522
1154.04	4.22542
1156.93	4.19695
1159.83	2.39498
1162.72	3.43307
1165.61	5.81425
1168.51	6.96866
1171.4	9.7917
1174.29	7.65885
1177.18	6.21323
1180.08	5.30579
1182.97	5.71212
1185.86	3.22755
1188.75	4.14404
1191.65	3.30788
1194.54	3.26289
1197.43	2.74944
1200.33	2.81097
1203.22	0.318428
1206.11	0.85598
1209	2.55798
1211.9	2.01701
1214.79	2.0935
1217.68	4.62396
1220.57	2.43125
1223.47	0.561165
1226.36	2.05707
1229.25	4.68578
1232.14	6.71056
1235.04	0.146095
1237.93	2.44215
1240.82	4.35349
1243.71	5.02379
1246.61	4.8799
1249.5	3.34969
1252.39	4.83223
1255.29	4.4384
1258.18	1.90985
1261.07	5.2341
1263.96	2.86108
1266.86	3.61462
1269.75	4.07569
1272.64	3.28773
1275.54	2.56673
1278.43	2.54365
1281.32	3.33097
1284.21	3.57161
1287.11	0.182487
1290	3.69791
1292.89	2.39331
1295.78	3.81827
1298.68	0.725082
1301.57	0.635468
