Measurement: Raman, 780 nm, unoriented, Raman Data Processed
Mineral: Kentbrooksite
Rruff sample: R110208
Ideal chemistry: (Na,La^3+^)_15_(Ca,La^3+^)_6_Mn^2+^_3_Zr^4+^_3_Nb^5+^Si_25_O_73_(O,OH,H_2_O)_3_(F,Cl)_2_
Locality: Pocos de Caldas plateau, Minas Gerais, Brazil
Source: Gunnar Farber
Description: Red massive crystalline associated with aegirine and nepheline
Raman shift (cm-1)	intensity
109.924	0
113.299	0.843948
116.674	5.82507
120.048	9.86664
123.423	18.6989
126.798	18.2947
130.173	26.2214
133.548	31.6084
136.923	39.978
140.297	49.575
143.672	42.8142
147.047	29.6791
150.422	16.2194
153.797	11.1693
157.171	7.39052
160.546	9.56815
163.921	7.06204
167.296	0.04686
170.671	1.39018
174.046	0.633575
177.42	3.35945
180.795	9.88594
184.17	18.2472
187.545	27.4415
190.92	38.6776
194.294	47.6201
197.669	51.3083
201.044	49.6731
204.419	44.9527
207.794	34.6799
211.168	27.2332
214.543	23.3496
217.918	19.664
221.293	19.3262
224.668	23.9069
228.042	25.8539
231.417	30.2666
234.792	25.1325
238.167	11.7903
241.542	0.419937
244.917	0.070679
248.291	1.59022
251.666	0.486282
255.041	3.4823
258.416	10.3356
261.791	15.4105
265.166	17.1002
268.54	14.7784
271.915	14.4937
275.29	13.9825
278.665	17.2401
282.04	18.2865
285.414	20.9548
288.789	27.847
292.164	32.7802
295.539	37.8423
298.914	41.0441
302.288	47.1726
305.663	49.7394
309.038	49.3
312.413	51.7341
315.788	53.3
319.163	54.0207
322.537	57.6342
325.912	63.3483
329.287	70.4746
332.662	72.3468
336.037	68.8111
339.411	52.7472
342.786	42.7106
346.161	33.9314
349.536	33.0507
352.911	30.1843
356.286	29.4812
359.66	26.0242
363.035	20.0703
366.41	11.2872
369.785	5.43913
373.16	2.72022
376.534	0.072937
379.909	0.775604
383.284	2.27112
386.659	3.8011
390.034	6.14223
393.409	2.00841
396.783	1.04524
400.158	1.13327
403.533	2.87714
406.908	0.087494
410.283	5.78865
413.658	9.57204
417.032	14.0276
420.407	21.2729
423.782	24.9698
427.157	23.7441
430.532	24.0563
433.906	21.2255
437.281	19.7546
440.656	23.8316
444.031	28.3595
447.406	28.0202
450.781	30.4754
454.155	29.1726
457.53	27.3635
460.905	25.9007
464.28	23.2592
467.654	16.4799
471.029	12.934
474.404	7.61591
477.779	5.15327
481.154	1.75461
484.529	0.412155
487.903	3.00398
491.278	1.45619
494.653	0.028519
498.028	2.77472
501.403	3.32378
504.777	8.98331
508.152	10.7781
511.527	8.11612
514.902	6.44003
518.277	5.93512
521.652	6.40805
525.026	10.7118
528.401	16.1138
531.776	26.1225
535.151	34.4399
538.526	44.6375
541.9	56.5238
545.275	69.9969
548.65	76.2369
552.025	77.6012
555.4	73.0406
558.775	66.8839
562.149	60.2535
565.524	51.4857
568.899	44.7292
572.274	36.2107
575.649	26.6433
579.024	16.0816
582.398	8.85609
585.773	4.29257
589.148	1.52435
592.523	0.127121
595.898	0.177002
599.272	0.511383
602.647	1.49029
606.022	2.39478
609.397	3.40723
612.772	6.14677
616.146	5.49213
619.521	8.69907
622.896	8.04742
626.271	7.51129
629.646	8.6926
633.021	4.99368
636.395	1.87466
639.77	0.678375
643.145	0.403488
646.52	1.34015
649.895	0.500122
653.269	0.963089
656.644	0.016556
660.019	4.13
663.394	7.22768
666.769	13.8129
670.144	22.5301
673.518	33.3767
676.893	45.2797
680.268	56.5355
683.643	62.961
687.018	63.2411
690.393	57.4261
693.767	52.0659
697.142	45.9432
700.517	40.7285
703.892	33.7587
707.266	27.4322
710.641	23.7176
714.016	20.667
717.391	15.3956
720.766	11.0539
724.141	9.40515
727.515	9.20819
730.89	12.852
734.265	16.8472
737.64	21.0456
741.015	24.799
744.389	26.4779
747.764	25.7726
751.139	24.9013
754.514	25.3031
757.889	24.4012
761.264	21.2257
764.638	18.7433
768.013	14.8043
771.388	14.6815
774.763	10.0707
778.138	9.2299
781.513	8.02771
784.887	7.0755
788.262	4.26814
791.637	3.60403
795.012	3.62521
798.387	2.0214
801.761	1.70579
805.136	0.711304
808.511	1.18921
811.886	0.760818
815.261	0.890099
818.635	0.05468
822.01	1.46464
825.385	1.67856
828.76	3.81826
832.135	5.82175
835.51	9.27852
838.884	11.3044
842.259	15.1872
845.634	18.1059
849.009	20.5079
852.384	23.3495
855.759	22.2691
859.133	19.8347
862.508	18.4732
865.883	15.45
869.258	12.2101
872.633	10.6282
876.007	7.77102
879.382	3.81176
882.757	2.10103
886.132	2.08209
889.507	0.928802
892.881	0.467575
896.256	1.88435
899.631	1.6266
903.006	2.17718
906.381	2.86438
909.756	1.97076
913.13	0.795021
916.505	0.029724
919.88	2.25654
923.255	2.13259
926.63	5.02602
930.005	8.62148
933.379	13.3508
936.754	17.402
940.129	22.0385
943.504	25.1101
946.879	22.4522
950.253	16.2708
953.628	14.1737
957.003	8.39633
960.378	5.33791
963.753	3.16597
967.127	1.11945
970.502	0.36969
973.877	0.439651
977.252	0.084641
980.627	1.06511
984.001	0.940109
987.376	0.017181
990.751	0.521667
994.126	1.1097
997.501	0.588989
1000.88	2.3905
1004.25	4.17798
1007.62	7.73096
1011	10.5874
1014.38	16.1709
1017.75	21.9304
1021.12	26.1323
1024.5	30.227
1027.87	35.3023
1031.25	38.1315
1034.62	40.3547
1038	42.9122
1041.37	44.8596
1044.75	47.3493
1048.12	51.3432
1051.5	54.5045
1054.87	62.1336
1058.25	64.0781
1061.62	69.4427
1065	72.5305
1068.37	75.3322
1071.75	71.1482
1075.12	67.4334
1078.5	65.4456
1081.87	61.6148
1085.25	54.2279
1088.62	48.3094
1092	40.5368
1095.37	36.3117
1098.74	31.7977
1102.12	27.284
1105.49	23.8514
1108.87	19.4884
1112.24	16.699
1115.62	15.1485
1118.99	12.6263
1122.37	11.2645
1125.74	8.35988
1129.12	8.23427
1132.49	5.37596
1135.87	4.49478
1139.24	2.01218
1142.62	0.060242
1145.99	1.96161
1149.37	1.68053
1152.74	1.4436
1156.12	1.87804
1159.49	2.07097
1162.87	2.77396
1166.24	1.43904
1169.62	2.16858
1172.99	1.00351
1176.37	3.4422
1179.74	3.51053
1183.12	7.55734
1186.49	18.7443
1189.87	29.2917
1193.24	39.7969
1196.62	49.2273
1199.99	46.3294
1203.37	41.8936
1206.74	32.9348
1210.11	28.2334
1213.49	27.8772
1216.86	35.4182
1220.24	46.416
1223.61	64.8557
1226.99	82.4083
1230.36	92.078
1233.74	104.212
1237.11	111.265
1240.49	122.093
1243.86	130.526
1247.24	136.36
1250.61	134.874
1253.99	128.658
1257.36	118.936
1260.74	105.864
1264.11	87.3656
1267.49	66.7861
1270.86	44.9792
1274.24	26.0872
1277.61	12.1457
1280.98	1.04932
1284.36	0.551208
