Measurement: Raman, 780 nm, unoriented, Raman Data Processed
Mineral: Kentrolite
Rruff sample: R060245
Ideal chemistry: Pb^2+^_2_Mn^3+^_2_O_2_(Si_2_O_7_)
Locality: Percha Creek area, Hillsboro District, Sierra County, New Mexico, USA
Source: William W. Pinch
Description: Dark-purple colored single crystals associated with orange colored prismatic vanadinite and calcite
Measured chemistry: Pb_2.00_(Mn^3+^_1.54_Fe^3+^_0.36_Al_0.10_)_Î£=2_O_2_Si_2.00_O_7_
Raman shift (cm-1)	intensity
149.999	0
152.892	0.012787
155.785	0.218301
158.677	0.539456
161.57	3.5656
164.463	1.89393
167.355	4.13947
170.248	5.95252
173.141	7.13284
176.034	8.36794
178.926	8.90525
181.819	8.63095
184.712	5.79406
187.604	5.1609
190.497	2.48544
193.39	4.12375
196.282	0.90305
199.175	0.438324
202.068	0.53725
204.96	0.495888
207.853	0.01946
210.746	1.34
213.639	2.39755
216.531	2.34865
219.424	0.896306
222.317	1.98385
225.209	1.97157
228.102	1.58186
230.995	0.25941
233.887	0.811556
236.78	0.163075
239.673	3.0111
242.566	0.242083
245.458	0.508494
248.351	1.20817
251.244	1.55492
254.136	0.188618
257.029	0.140735
259.922	1.41735
262.815	0.37098
265.707	0.784359
268.6	0.329668
271.493	0.197471
274.385	0.619863
277.278	0.985444
280.171	1.54155
283.063	2.22869
285.956	3.3474
288.849	5.82672
291.741	8.45189
294.634	6.86097
297.527	9.51721
300.42	9.70671
303.312	10.6321
306.205	11.282
309.098	14.3522
311.99	16.3884
314.883	18.0558
317.776	19.2126
320.668	22.0815
323.561	25.9349
326.454	29.8871
329.347	32.657
332.239	36.3496
335.132	36.6683
338.025	37.4251
340.917	37.0636
343.81	37.6441
346.703	33.8237
349.596	29.7629
352.488	26.715
355.381	22.7106
358.274	18.1263
361.166	15.6463
364.059	12.333
366.952	9.4553
369.844	9.53022
372.737	5.7612
375.63	4.58971
378.523	3.98375
381.415	2.62168
384.308	0.999515
387.201	1.40207
390.093	1.57528
392.986	0.408405
395.879	0.49358
398.772	0.092187
401.664	0.319344
404.557	0.404975
407.45	0.672422
410.342	0.094729
413.235	0.239651
416.128	0.074367
419.02	0.50258
421.913	0.967474
424.806	0.347344
427.699	0.022712
430.591	1.3661
433.484	0.13683
436.377	0.534702
439.269	0.48701
442.162	1.25099
445.055	1.40674
447.947	1.59825
450.84	1.52207
453.733	2.88548
456.625	3.99806
459.518	3.55836
462.411	4.19451
465.304	1.81678
468.196	2.68354
471.089	2.75702
473.982	1.99179
476.874	1.61752
479.767	1.38135
482.66	2.51131
485.553	0.193341
488.445	0.186911
491.338	0.293451
494.231	0.003201
497.123	0.282401
500.016	0.284196
502.909	0.256714
505.801	0.366518
508.694	0.206203
511.587	0.538241
514.479	2.15115
517.372	2.81907
520.265	5.03002
523.158	5.62888
526.05	7.69706
528.943	9.73223
531.836	11.697
534.728	11.759
537.621	12.7907
540.514	13.3841
543.406	15.0573
546.299	15.7265
549.192	13.3421
552.085	14.1081
554.977	14.0447
557.87	13.0072
560.763	13.9102
563.655	15.4771
566.548	19.2711
569.441	24.2983
572.333	30.2353
575.226	37.3333
578.119	47.2161
581.011	52.6298
583.904	59.2059
586.797	60.4959
589.69	60.9695
592.582	57.9577
595.475	50.2658
598.368	43.2861
601.26	33.8486
604.153	28.4079
607.046	23.4719
609.939	18.7997
612.831	12.9146
615.724	10.6952
618.617	8.62536
621.509	6.26089
624.402	4.18523
627.295	3.39329
630.188	1.29978
633.08	0.495617
635.973	0.505834
638.866	0.017737
641.758	0.327388
644.651	0.300708
647.544	0.110763
650.436	0.143098
653.329	0.144833
656.222	0.274469
659.115	0.033068
662.007	0.229301
664.9	0.187062
667.793	0.475967
670.685	0.230662
673.578	1.19653
676.471	0.890036
679.363	1.71914
682.256	0.994556
685.149	1.46348
688.042	1.32119
690.934	1.43507
693.827	1.17351
696.72	1.23388
699.612	1.05192
702.505	0.037914
705.398	0.433665
708.29	0.515325
711.183	1.18464
714.076	0.068631
716.968	0.36573
719.861	0.568569
722.754	0.566646
725.647	0.580294
728.539	0.81605
731.432	0.131436
734.325	1.2693
737.217	1.717
740.11	0.366288
743.003	0.792769
745.895	0.317027
748.788	1.00484
751.681	1.64005
754.574	1.47234
757.466	0.792111
760.359	0.491349
763.252	1.06868
766.144	0.095122
769.037	1.34931
771.93	0.518284
774.822	0.601597
777.715	0.319687
780.608	0.346924
783.501	0.96973
786.393	0.168945
789.286	0.619445
792.179	0.027326
795.071	0.350513
797.964	0.061704
800.857	0.538221
803.75	0.20114
806.642	0.176845
809.535	0.10866
812.428	0.301022
815.32	1.51582
818.213	0.168131
821.106	1.24289
823.998	0.279088
826.891	1.02289
829.784	2.01538
832.677	0.436354
835.569	0.260233
838.462	1.6758
841.355	2.12574
844.247	0.752565
847.14	1.16049
850.033	1.04514
852.925	1.14792
855.818	1.79992
858.711	2.47775
861.604	2.64885
864.496	2.79637
867.389	3.59789
870.282	5.31754
873.174	5.58399
876.067	5.58429
878.96	5.8336
881.852	5.33234
884.745	5.94184
887.638	6.09495
890.53	5.38347
893.423	5.80871
896.316	5.35632
899.209	3.31478
902.101	3.65406
904.994	3.25123
907.887	2.03405
910.779	1.39985
913.672	1.32879
916.565	0.432379
919.457	0.020938
922.35	0.204402
925.243	0.681129
928.136	0.144747
931.028	0.348865
933.921	0.848985
936.814	0.490469
939.706	1.4035
942.599	1.17573
945.492	0.064931
948.385	0.009938
951.277	0.03759
954.17	0.373366
957.063	1.03227
959.955	1.97135
962.848	1.55761
965.741	0.947432
968.633	0.62324
971.526	0.404214
974.419	0.231834
977.312	1.23104
980.204	0.671283
983.097	0.362339
985.99	0.04495
988.882	0.973804
991.775	0.680016
994.668	0.245566
997.56	0.878308
1000.45	1.21202
1003.35	0.376412
1006.24	0.886376
1009.13	0.909058
1012.02	0.125238
1014.92	1.22952
1017.81	0.852198
1020.7	1.84977
1023.6	0.938597
1026.49	1.59353
1029.38	0.897037
1032.27	1.20287
1035.17	0.607903
1038.06	0.012547
1040.95	1.49812
1043.84	1.77311
1046.74	0.403538
1049.63	0.545431
1052.52	1.48539
1055.41	0.947522
1058.31	0.854481
1061.2	2.00335
1064.09	1.30004
1066.98	1.50083
1069.88	1.79638
1072.77	1.98251
1075.66	0.310168
1078.56	1.63179
1081.45	0.640624
1084.34	1.17664
1087.23	2.0939
1090.13	0.110149
1093.02	1.28434
1095.91	0.723669
1098.81	1.77371
1101.7	0.202816
1104.59	0.417129
1107.48	0.130264
1110.38	1.32161
1113.27	0.427359
1116.16	0.576605
1119.05	2.11902
1121.95	0.029431
1124.84	1.28442
1127.73	1.14309
1130.62	0.087529
1133.52	1.4751
1136.41	1.37645
1139.3	0.387327
1142.19	0.610764
1145.09	0.069905
1147.98	0.077745
1150.87	0.672138
1153.77	0.64875
1156.66	1.62742
1159.55	0.935005
1162.44	1.53714
1165.34	1.19191
1168.23	2.45659
1171.12	2.67694
1174.02	1.30313
1176.91	2.05677
1179.8	1.83185
1182.69	0.076105
1185.59	2.29005
1188.48	0.845831
1191.37	0.71161
1194.26	0.925284
1197.16	2.07191
1200.05	1.13522
1202.94	1.99646
1205.84	2.40202
1208.73	1.88842
1211.62	0.135489
1214.51	0.233344
1217.41	0.514183
1220.3	1.38661
1223.19	1.05052
1226.08	0.069765
1228.98	1.03279
1231.87	0.104984
1234.76	0.180604
1237.65	2.21787
1240.55	0.288396
1243.44	1.56976
1246.33	0.226188
1249.22	1.27936
1252.12	2.25468
1255.01	0.024629
1257.9	1.27053
1260.8	1.10974
1263.69	0.290297
1266.58	0.749866
1269.47	1.06535
1272.37	1.03543
1275.26	1.71871
1278.15	0.631685
1281.05	1.14843
1283.94	1.36758
