Measurement: Raman, 532 nm, unoriented, Raman Data Processed
Mineral: Kermesite
Rruff sample: R060742
Ideal chemistry: Sb^3+^_2_OS^2-^_2_
Locality: Pezinok, Czechoslovakia
Source: Michael Scott
Description: Dark red elongated bladed crystals associated with quartz and blue tanished gudmundite, R060741
Measured chemistry: Sb_2_O_1.11_S_1.9_
Raman shift (cm-1)	intensity
123.451	0
126.826	1135.16
130.201	881.735
133.576	35.1973
136.951	1707.36
140.325	4395.17
143.7	5656.52
147.075	4180.08
150.45	1924.22
153.824	480.999
157.199	7.21484
160.574	151.601
163.949	165.852
167.324	92.4717
170.699	230.481
174.073	429.111
177.448	285.538
180.823	112.661
184.198	215.226
187.573	498.072
190.947	73.042
194.322	311.303
197.697	210.619
201.072	18.0098
204.447	457.389
207.822	687.057
211.196	994.35
214.571	1513.88
217.946	2289.22
221.321	3149.91
224.696	4072.12
228.07	4924.45
231.445	5285.29
234.82	5440.13
238.195	5155.45
241.57	4859.69
244.945	4843.51
248.319	4864.93
251.694	4442.22
255.069	3355.85
258.444	3101.63
261.819	3480.25
265.193	4082.94
268.568	4672.01
271.943	5099.83
275.318	5479.01
278.693	5497.49
282.068	5604.7
285.442	5523.22
288.817	5575.6
292.192	5767.23
295.567	5760.16
298.942	5972.58
302.316	6307.51
305.691	6922.9
309.066	7596.32
312.441	9064.39
315.816	8577.17
319.19	4282.1
322.565	2096.62
325.94	1500.46
329.315	1390.91
332.69	1273.83
336.065	635.919
339.439	75.7344
342.814	97.0688
346.189	189.18
349.564	83.2061
352.939	50.3852
356.313	66.2715
359.688	17.7861
363.063	30.9224
366.438	133.317
369.813	128.487
373.188	206.602
376.562	285.31
379.937	284.646
383.312	364.285
386.687	410.419
390.062	384.651
393.436	439.537
396.811	418.185
400.186	440.97
403.561	331.714
406.936	306.969
410.31	301.423
413.685	256.033
417.06	208.001
420.435	197.565
423.81	172.522
427.185	136.69
430.559	152.308
433.934	221.515
437.309	263.079
440.684	366.947
444.059	437.552
447.433	453.6
450.808	391.706
454.183	294.755
457.558	215.565
460.933	160.257
464.307	180.126
467.682	143.509
471.057	188.18
474.432	123.334
477.807	95.0586
481.181	87.9717
484.556	88.5205
487.931	208.918
491.306	105.649
494.681	119.521
498.056	52.5972
501.43	15.2778
504.805	4.46484
508.18	18.6128
511.555	38.0879
514.93	18.9097
518.305	7.01856
521.679	3.07422
525.054	2.32178
528.429	76.4858
531.804	66.8643
535.179	9.50684
538.553	9.30518
541.928	16.8135
545.303	32.3198
548.678	67.2773
552.053	28.6211
555.427	75.3135
558.802	27.3208
562.177	120.516
565.552	184.039
568.927	169.115
572.302	171.717
575.676	201.837
579.051	236.892
582.426	267.015
585.801	193.106
589.176	114.358
592.55	69.5786
595.925	73.5952
599.3	24.6943
602.675	67.1011
606.05	60.6826
609.424	52.3755
612.799	85.2817
616.174	74.7944
619.549	117.502
622.924	76.7705
626.299	171.239
629.673	109.029
633.048	111.332
636.423	94.2031
639.798	55.7891
643.173	59.4111
646.547	67.8633
649.922	117.261
653.297	32.2192
656.672	19.0557
660.047	37.7002
663.422	15.0098
666.796	6.37012
670.171	53.7822
673.546	40.7754
676.921	50.9438
680.296	60.7759
683.67	71.9546
687.045	86.3804
690.42	0.633301
693.795	84.4189
697.17	92.6411
700.544	69.2695
703.919	37.1724
707.294	56.7856
710.669	68.1675
714.044	31.4849
717.419	111.068
720.793	48.5786
724.168	49.2017
727.543	33.3188
730.918	2.29394
734.293	50.2119
737.667	9.41846
741.042	16.4624
744.417	73.5825
747.792	42.3623
751.167	65.6235
754.542	97.4795
757.916	76.3965
761.291	75.417
764.666	28.7847
768.041	92.0898
771.416	78.5693
774.79	55.502
778.165	10.6973
781.54	35.3018
784.915	52.5928
788.29	59.7852
791.664	66.7647
795.039	51.1352
798.414	61.8101
801.789	39.3042
805.164	49.2114
808.539	63.189
811.913	10.5063
815.288	29.5986
818.663	19.5064
822.038	51.2715
825.413	44.6885
828.787	25.9556
832.162	47.606
835.537	18.4868
838.912	14.0957
842.287	36.2197
845.661	15.0073
849.036	16.3662
852.411	24.2534
855.786	43.7563
859.161	37.833
862.536	86.187
865.91	46.0957
869.285	49.8511
872.66	60.4209
876.035	71.0137
879.41	2.27881
882.784	22.3101
886.159	5.8208
889.534	13.4941
892.909	74.0195
896.284	117.633
899.659	85.0864
903.033	0.147461
906.408	14.7158
909.783	22.2666
913.158	35.1973
916.533	67.1148
919.907	78.4043
923.282	51.645
926.657	126.949
930.032	98.4434
933.407	67.8325
936.781	31.6934
940.156	37.0962
943.531	5.98584
946.906	58.1274
950.281	58.4228
953.656	95.1123
957.03	69.4531
960.405	68.2305
963.78	93.4756
967.155	90.3721
970.53	91.5337
973.904	106.692
977.279	85.2104
980.654	52.0767
984.029	30.9033
987.404	38.2305
990.779	14.1465
994.153	22.7788
997.528	11.5708
1000.9	90.2139
1004.28	87.6328
1007.65	40.1182
1011.03	24.0288
1014.4	92.3325
1017.78	6.70801
1021.15	22.1675
1024.53	6.45459
1027.9	74.8984
1031.28	99.5913
1034.65	94.4228
1038.03	48.8648
1041.4	90.9741
1044.78	22.8667
1048.15	79.5723
1051.53	61.3843
1054.9	68.6094
1058.28	66.7432
1061.65	22.4429
1065.02	41.9585
1068.4	29.7075
1071.77	6.48096
1075.15	73.7686
1078.52	25.3208
1081.9	28.519
1085.27	73.4204
1088.65	40.7065
1092.02	87.313
1095.4	92.3628
1098.77	82.7788
1102.15	37.1807
1105.52	59.229
1108.9	54.3403
1112.27	6.90039
1115.65	85.6133
1119.02	105.96
1122.4	31.6323
1125.77	34.9946
1129.15	43.1201
1132.52	33.8145
1135.9	89.2983
1139.27	13.8442
1142.64	63.7315
1146.02	16.4082
1149.39	69.7925
1152.77	29.0791
1156.14	87.5308
1159.52	132.172
1162.89	76.9009
1166.27	57.3457
1169.64	18.1636
1173.02	17.2173
1176.39	47.8057
1179.77	12.8135
1183.14	87.5
1186.52	41.0562
1189.89	40.544
1193.27	37.8623
1196.64	55.7925
1200.02	70.8496
1203.39	46.4385
1206.77	27.0376
1210.14	30.3652
1213.52	85.4932
1216.89	9.87451
1220.27	57.9575
1223.64	5.6582
1227.02	60.6846
1230.39	62.6182
1233.77	111.347
1237.14	144.184
1240.52	107.758
1243.89	68.2822
1247.26	97.3345
1250.64	203.402
1254.01	20.3403
1257.39	92.8867
1260.76	63.0122
1264.14	11.0068
1267.51	11.0649
1270.89	131.233
1274.26	115.499
1277.64	82.3394
1281.01	94.5938
1284.39	55.4053
1287.76	58.4463
1291.14	59.7476
