Measurement: Raman, 780 nm, unoriented, Raman Data Processed
Mineral: Keystoneite
Rruff sample: R070660
Ideal chemistry: Mg_0.5_Ni^2+^Fe^3+^(Te^4+^O_3_)_3_4.5H_2_O
Locality: McAlpine mine, Moccasin, Tuolumne County, California, USA
Source: Michael Scott
Description: Clusters of greenish yellow acicular microcrystals associated with quartz and pyrite.
Raman shift (cm-1)	intensity
119.04	0
122.415	26.4215
125.79	37.166
129.164	9.62585
132.539	8.26526
135.914	22.7494
139.289	20.4203
142.664	27.5757
146.038	31.5731
149.413	38.3203
152.788	39.954
156.163	32.3395
159.538	27.422
162.912	17.4148
166.287	2.57349
169.662	3.65002
173.037	7.40515
176.412	8.61938
179.786	0.978394
183.161	26.3818
186.536	27.7716
189.911	49.9989
193.286	35.4888
196.661	53.6653
200.035	62.0149
203.41	69.4148
206.785	79.8248
210.16	73.8837
213.535	84.6089
216.91	77.7471
220.284	92.3901
223.659	101.482
227.034	95.0659
230.409	102.115
233.784	94.916
237.158	95.9888
240.533	81.6317
243.908	89.7117
247.283	74.3999
250.658	66.1691
254.032	59.8632
257.407	52.9446
260.782	52.2
264.157	49.3004
267.532	31.321
270.907	29.0596
274.281	10.9334
277.656	21.6591
281.031	20.2229
284.406	10.1224
287.781	1.50037
291.156	25.9739
294.53	14.4393
297.905	4.35938
301.28	15.3485
304.655	3.96521
308.03	12.7654
311.404	2.28967
314.779	0.521362
318.154	1.23144
321.529	1.02209
324.904	24.6073
328.279	19.2021
331.653	21.278
335.028	11.4773
338.403	27.4514
341.778	27.8127
345.152	31.6083
348.527	12.0018
351.902	34.8563
355.277	24.3524
358.652	26.3478
362.027	19.2828
365.401	18.8976
368.776	5.62561
372.151	17.9492
375.526	17.5626
378.901	1.37097
382.276	1.08398
385.65	7.80103
389.025	3.42578
392.4	4.90564
395.775	0.509033
399.15	7.12769
402.524	1.39746
405.899	1.55115
409.274	5.43481
412.649	17.0888
416.024	13.9083
419.399	25.3581
422.773	29.5283
426.148	46.1005
429.523	59.7116
432.898	68.1901
436.273	69.7985
439.647	104.797
443.022	110.359
446.397	131.945
449.772	132.53
453.147	146.672
456.522	141.727
459.896	139.757
463.271	154.711
466.646	148.231
470.021	124.424
473.396	112.605
476.77	105.235
480.145	78.0163
483.52	67.8828
486.895	61.9373
490.27	37.2413
493.644	41.4461
497.019	37.8594
500.394	25.7793
503.769	23.6743
507.144	12.5894
510.519	6.68481
513.893	9.27307
517.268	20.3142
520.643	10.1909
524.018	27.376
527.393	7.12897
530.768	15.8079
534.142	13.7599
537.517	2.82214
540.892	7.21338
544.267	4.24402
547.641	1.20252
551.016	6.04791
554.391	8.34582
557.766	4.71277
561.141	3.09351
564.516	0.59967
567.89	7.14392
571.265	5.29981
574.64	6.70258
578.015	9.44519
581.39	10.6688
584.764	12.1812
588.139	2.04303
591.514	5.69763
594.889	5.7356
598.264	1.41754
601.639	14.1461
605.013	18.0099
608.388	11.6115
611.763	8.78998
615.138	13.4403
618.513	15.8257
621.888	23.7688
625.262	45.1043
628.637	32.6357
632.012	32.4234
635.387	23.3335
638.761	28.2996
642.136	32.7279
645.511	26.7765
648.886	27.4596
652.261	24.2812
655.636	29.0681
659.01	23.803
662.385	17.3081
665.76	4.22961
669.135	0.578491
672.51	18.0166
675.885	4.56714
679.259	10.042
682.634	14.7648
686.009	25.0236
689.384	30.1721
692.759	38.5935
696.133	62.6222
699.508	83.8227
702.883	118.689
706.258	148.261
709.633	178.583
713.008	188.278
716.382	219.898
719.757	228.192
723.132	251.327
726.507	253.343
729.882	244.427
733.256	243.452
736.631	204.347
740.006	180.767
743.381	164.05
746.756	129.137
750.13	110.45
753.505	101.497
756.88	72.3456
760.255	47.4413
763.63	32.5762
767.005	21.0256
770.379	23.6896
773.754	0.296448
777.129	9.9035
780.504	1.7262
783.879	3.42175
787.254	4.37634
790.628	11.7596
794.003	6.44983
797.378	21.402
800.753	21.5633
804.128	17.4843
807.502	20.0095
810.877	26.7613
814.252	27.9126
817.627	21.6235
821.002	21.6091
824.376	6.31622
827.751	3.5246
831.126	6.65076
834.501	2.34784
837.876	2.12164
841.25	2.48615
844.625	1.47754
848	7.36676
851.375	2.58582
854.75	7.06293
858.125	15.5371
861.5	3.63977
864.874	16.0656
868.249	15.5565
871.624	10.9203
874.999	2.56879
878.374	6.39246
881.748	18.7495
885.123	8.01495
888.498	27.639
891.873	28.4651
895.248	27.4893
898.622	27.6257
901.997	18.142
905.372	19.2574
908.747	19.0151
912.122	36.5293
915.496	12.6266
918.871	25.1604
922.246	31.9278
925.621	30.7816
928.996	15.6593
932.37	16.6188
935.745	17.884
939.12	4.87799
942.495	23.2512
945.87	23.5092
949.245	4.74683
952.619	13.2262
955.994	4.47388
959.369	11.5123
962.744	9.26337
966.119	13.8354
969.494	25.8716
972.868	13.7618
976.243	5.55145
979.618	10.3674
982.993	20.3641
986.368	8.91644
989.742	13.7739
993.117	21.2475
996.492	14.1905
999.867	12.6487
1003.24	7.45532
1006.62	19.5751
1009.99	9.27759
1013.37	11.0483
1016.74	12.6603
1020.12	6.15832
1023.49	5.82086
1026.87	16.5453
1030.24	0.909241
1033.62	18.7925
1036.99	14.3909
1040.37	12.3966
1043.74	11.6646
1047.11	16.4235
1050.49	16.2979
1053.86	17.8247
1057.24	18.6216
1060.61	2.79669
1063.99	5.91565
1067.36	2.90955
1070.74	13.6541
1074.11	11.4982
1077.49	16.4567
1080.86	3.55627
1084.24	14.4203
1087.61	3.80804
1090.99	0.305176
1094.36	19.3023
1097.74	21.0327
1101.11	24.2014
1104.49	7.67932
1107.86	24.7283
1111.24	26.456
1114.61	12.3873
1117.98	21.8958
1121.36	16.7149
1124.73	22.4494
1128.11	24.7463
1131.48	24.6926
1134.86	33.4905
1138.23	25.7465
1141.61	28.2204
1144.98	25.5301
1148.36	13.6456
1151.73	18.6083
1155.11	14.5081
1158.48	25.6069
1161.86	8.9035
1165.23	14.1345
1168.61	4.74207
1171.98	8.17084
1175.36	5.4093
1178.73	10.5064
1182.11	24.2045
1185.48	8.29816
1188.86	11.8962
1192.23	20.0826
1195.61	2.37732
1198.98	1.10693
1202.36	9.6571
1205.73	5.10474
1209.11	16.3666
1212.48	13.2059
1215.86	13.0034
1219.23	10.446
1222.61	9.34729
1225.98	20.1537
1229.35	0.489197
1232.73	3.79053
1236.1	6.92181
1239.48	23.348
1242.85	12.2008
1246.23	5.74347
1249.6	9.90179
1252.98	3.75781
1256.35	3.04865
1259.73	16.2023
1263.1	5.96265
1266.48	7.71954
1269.85	17.0729
1273.23	10.124
1276.6	3.17596
