Measurement: Raman, 785 nm, unoriented, Raman Data Processed
Mineral: Khaidarkanite
Rruff sample: R060322
Ideal chemistry: Cu^2+^_4_Al_3_(OH)_14_F_3_2H_2_O
Locality: Khaidarkan, (Kirgizia) Kyrgyzstan
Source: Michael Scott
Description: Pale sky blue acicular divergent crystals, each fiber is an aggregate of even finer fibers
Raman shift (cm-1)	intensity
149.973	0
152.865	19.878
155.758	2.06
158.651	1.794
161.544	5.605
164.436	14.23
167.329	14.543
170.222	12.828
173.114	19.097
176.007	17.591
178.9	15.692
181.792	9.541
184.685	20.167
187.578	2.219
190.471	23.499
193.363	13.696
196.256	6.161
199.149	16.919
202.041	11.216
204.934	1.536
207.827	8.03
210.719	25.881
213.612	16.649
216.505	0.979
219.398	20.824
222.29	9.846
225.183	11.179
228.076	15.827
230.968	32.496
233.861	21.215
236.754	30.248
239.646	15.742
242.539	10.333
245.432	22.06
248.325	20.493
251.217	14.668
254.11	11.226
257.003	16.628
259.895	2.586
262.788	6.559
265.681	3.098
268.573	20.72
271.466	25.235
274.359	7.728
277.252	26.245
280.144	23.573
283.037	33.908
285.93	19.916
288.822	0.545
291.715	1.481
294.608	0.643
297.5	6.043
300.393	13.936
303.286	16.085
306.179	33.311
309.071	50.254
311.964	73.839
314.857	87.696
317.749	128.269
320.642	113.645
323.535	61.903
326.427	55.001
329.32	38.455
332.213	38.011
335.106	28.26
337.998	34.203
340.891	6.771
343.784	9.626
346.676	1.277
349.569	10.317
352.462	18.164
355.354	20.056
358.247	25.516
361.14	15.953
364.033	32.946
366.925	9.938
369.818	16.681
372.711	22.686
375.603	11.029
378.496	14.352
381.389	0.168
384.281	9.307
387.174	8.618
390.067	3.34
392.96	10.894
395.852	1.317
398.745	5.58
401.638	11.439
404.53	3.715
407.423	1.761
410.316	4.425
413.208	4.469
416.101	8.69
418.994	22.698
421.887	20.729
424.779	4.165
427.672	1.278
430.565	20.364
433.457	9.239
436.35	36.278
439.243	31.155
442.135	36.244
445.028	34.042
447.921	26.827
450.814	18.535
453.706	32.603
456.599	11.575
459.492	13.294
462.384	12.424
465.277	8.395
468.17	7.891
471.062	17.088
473.955	13.224
476.848	17.253
479.741	7.81
482.633	16.761
485.526	17.777
488.419	20.941
491.311	12.552
494.204	19.065
497.097	20.359
499.989	24.282
502.882	39.379
505.775	21.984
508.668	39.817
511.56	49.981
514.453	26.54
517.346	60.452
520.238	52.077
523.131	71.877
526.024	55.516
528.916	72.096
531.809	65.658
534.702	34.47
537.594	29.093
540.487	36.753
543.38	30.899
546.273	23.877
549.165	14.827
552.058	0.778
554.951	5.99
557.843	2.242
560.736	5.703
563.629	7.5
566.521	6.238
569.414	4.325
572.307	1.397
575.2	1.658
578.092	2.796
580.985	14.451
583.878	22.869
586.77	31.491
589.663	29.444
592.556	20.685
595.448	24.36
598.341	30.066
601.234	20.144
604.127	15.15
607.019	18.471
609.912	11.445
612.805	19.93
615.697	3.801
618.59	16.607
621.483	12.687
624.375	17.693
627.268	8.369
630.161	12.076
633.054	17.701
635.946	1.158
638.839	17.086
641.732	14.994
644.624	7.797
647.517	4.846
650.41	5.831
653.302	2.468
656.195	10.776
659.088	2.062
661.981	14.31
664.873	11.624
667.766	13.06
670.659	4.371
673.551	13.542
676.444	3.842
679.337	8.466
682.229	10.804
685.122	22.104
688.015	27.694
690.907	7.913
693.8	0.455
696.693	19.673
699.586	13.869
702.478	7.382
705.371	11.268
708.264	13.019
711.156	7.652
714.049	6.657
716.942	19.719
719.834	10.127
722.727	16.873
725.62	17.892
728.513	10.227
731.405	9.006
734.298	5.89
737.191	12.319
740.083	17.17
742.976	20.385
745.869	20.926
748.761	10.298
751.654	9.237
754.547	2.446
757.44	8.455
760.332	6.892
763.225	12.779
766.118	17.408
769.01	6.896
771.903	17.582
774.796	5.387
777.688	14.496
780.581	8.518
783.474	0.422
786.367	14.914
789.259	24.245
792.152	18.788
795.045	4.872
797.937	5.857
800.83	20.802
803.723	17.103
806.615	13.482
809.508	3.723
812.401	3.815
815.294	19.881
818.186	20.83
821.079	18.086
823.972	15.976
826.864	27.052
829.757	11.986
832.65	18.705
835.542	37.792
838.435	16.63
841.328	10.067
844.221	20.058
847.113	10.209
850.006	21.541
852.899	20.113
855.791	3.317
858.684	7.678
861.577	3.342
864.469	5.022
867.362	2.266
870.255	21.196
873.148	9.515
876.04	4.217
878.933	13.943
881.826	7.42
884.718	14.395
887.611	10.3
890.504	18.442
893.396	0.662
896.289	13.956
899.182	10.202
902.075	9.398
904.967	0.779
907.86	9.084
910.753	14.9
913.645	15.21
916.538	13.724
919.431	3.54
922.323	8.04
925.216	8.673
928.109	7.894
931.002	10.565
933.894	15.413
936.787	31.077
939.68	14.084
942.572	34.636
945.465	16.77
948.358	17.654
951.25	12.225
954.143	36.644
957.036	15.885
959.929	45.852
962.821	67.706
965.714	72.211
968.607	91.584
971.499	100.174
974.392	99.695
977.285	89.528
980.177	65.462
983.07	87.019
985.963	56.5
988.856	57.554
991.748	55.102
994.641	44.659
997.534	27.075
1000.43	48.074
1003.32	26.358
1006.21	29.921
1009.1	33.956
1012	29.107
1014.89	10.655
1017.78	9.203
1020.67	5.502
1023.57	1.144
1026.46	4.996
1029.35	6.97
1032.25	9.855
1035.14	16.882
1038.03	7
1040.92	5.926
1043.82	4.473
1046.71	4.256
1049.6	0.582
1052.49	15.073
1055.39	1.94
1058.28	15.31
1061.17	0.672
1064.07	2.41
1066.96	12.757
1069.85	4.8
1072.74	7.773
1075.64	8.816
1078.53	0.752
1081.42	14.681
1084.32	21.331
1087.21	7.89
1090.1	20.586
1092.99	19.619
1095.88	10.157
1098.78	23.095
1101.67	33.125
1104.56	23.702
1107.46	22.439
1110.35	37.908
1113.24	25.35
1116.13	45.476
1119.03	28.436
1121.92	24.782
1124.81	20.242
1127.7	14.841
1130.6	16.315
1133.49	13.244
1136.38	43.576
1139.28	19.952
1142.17	19.646
1145.06	2.872
1147.95	24.651
1150.85	8.906
1153.74	6.195
1156.63	12.887
1159.53	22.2
1162.42	25.01
1165.31	0.035
1168.2	18.607
1171.1	9.009
1173.99	18.628
1176.88	26.755
1179.77	35.013
1182.67	34.5
1185.56	41.997
1188.45	45.305
1191.34	44.02
1194.24	32.057
1197.13	11.782
1200.02	19.853
1202.91	21.27
1205.81	11.894
1208.7	3.596
