Measurement: Raman, 532 nm, unoriented, Raman Data Processed
Mineral: Khanneshite
Rruff sample: R070672
Ideal chemistry: (Na,Ca)_3_(Ba,Sr,Ce,Ca)_3_(CO_3_)_5_
Locality: Tuliylukht Bay, Khibiny Massif, Kola Peninsula, Murmanskaja Oblast', Northern Region, Russia
Source: Michael Scott
Description: Vitreous orange massive on single grain
Raman shift (cm-1)	intensity
200.286	0
203.178	52.9761
206.071	159.699
208.964	147.052
211.856	221.108
214.749	313.315
217.642	285.538
220.534	329.342
223.427	377.126
226.32	443.54
229.213	317.069
232.105	257.475
234.998	191.943
237.891	167.738
240.783	166.475
243.676	210.113
246.569	150.845
249.461	183.085
252.354	166.629
255.247	189.383
258.139	156.013
261.032	209.507
263.925	199.566
266.818	277.983
269.71	315.527
272.603	333.885
275.496	336.971
278.388	255.139
281.281	198.091
284.174	143.628
287.067	182.883
289.959	220.691
292.852	228.813
295.745	227.356
298.637	226.352
301.53	245.988
304.423	181.61
307.315	198.419
310.208	117.598
313.101	67.1663
315.993	37.0632
318.886	41.8684
321.779	9.85938
324.671	34.2629
327.564	33.0052
330.457	4.48547
333.35	19.9663
336.242	0.299316
339.135	3.33704
342.028	23.6758
344.92	64.4636
347.813	74.9851
350.706	83.7532
353.599	99.5015
356.491	119.614
359.384	141.453
362.277	154.746
365.169	151.406
368.062	156.117
370.955	143.087
373.847	180.602
376.74	177.183
379.633	155.094
382.526	177.591
385.418	149.51
388.311	179.788
391.204	165.591
394.096	152.966
396.989	164.751
399.882	180.808
402.774	184.804
405.667	187.468
408.56	220.04
411.452	212.781
414.345	183.107
417.238	119.002
420.131	109.578
423.023	103.234
425.916	122.365
428.809	67.2763
431.701	64.437
434.594	74.4192
437.487	62.425
440.38	24.4225
443.272	59.2008
446.165	25.214
449.058	29.3035
451.95	43.1313
454.843	38.2163
457.736	73.4103
460.628	98.8671
463.521	41.2019
466.414	6.41589
469.307	30.8422
472.199	20.3921
475.092	26.4467
477.985	1.7052
480.877	18.536
483.77	33.2458
486.663	53.2264
489.555	52.2422
492.448	9.15686
495.341	92.9847
498.233	55.0102
501.126	77.4719
504.019	15.8755
506.912	15.4126
509.804	11.7296
512.697	44.3449
515.59	6.91089
518.482	29.8799
521.375	28.8295
524.268	14.5655
527.16	30.9088
530.053	1.42163
532.946	18.6947
535.839	30.3418
538.731	22.3292
541.624	4.57141
544.517	21.7695
547.409	43.441
550.302	10.936
553.195	2.42395
556.087	4.39331
558.98	44.0554
561.873	17.0248
564.766	36.9689
567.658	19.7127
570.551	8.48791
573.444	14.4126
576.336	32.9683
579.229	47.7994
582.122	58.6278
585.014	20.1969
587.907	25.7582
590.8	16.3088
593.693	35.9255
596.585	27.6693
599.478	23.5277
602.371	43.1152
605.263	42.1376
608.156	72.8825
611.049	52.9839
613.942	83.465
616.834	50.2037
619.727	22.9575
622.62	14.9474
625.512	13.3124
628.405	17.2179
631.298	20.7737
634.19	1.38501
637.083	10.179
639.976	12.2754
642.869	2.35913
645.761	37.7891
648.654	0.936768
651.547	2.30847
654.439	1.32544
657.332	4.25488
660.225	28.7534
663.117	35.0635
666.01	0.182129
668.903	17.938
671.795	31.5139
674.688	43.0478
677.581	65.4949
680.473	153.083
683.366	209.297
686.259	304.971
689.152	397.387
692.044	462.022
694.937	467.853
697.83	551.665
700.722	549.225
703.615	589.75
706.508	603.718
709.4	621.373
712.293	629.487
715.186	557.882
718.079	468.307
720.971	387.815
723.864	364.528
726.757	228.741
729.649	182.748
732.542	80.4075
735.435	120.119
738.327	100.502
741.22	85.9248
744.113	98.8374
747.006	106.993
749.898	90.7576
752.791	91.8508
755.684	64.1228
758.576	120.516
761.469	125.95
764.362	125.071
767.255	125.7
770.147	122.112
773.04	170.289
775.933	139.411
778.825	158.251
781.718	180.798
784.611	185.752
787.503	170.209
790.396	200.623
793.289	222.793
796.182	205.374
799.074	205.119
801.967	188.226
804.86	176.572
807.752	157.842
810.645	180.406
813.538	113.833
816.43	113.279
819.323	92.2395
822.216	43.7432
825.109	73.5188
828.001	68.7468
830.894	36.147
833.787	5.09936
836.679	3.91406
839.572	47.6047
842.465	32.6235
845.357	28.6531
848.25	63.5493
851.143	17.7471
854.035	42.5107
856.928	35.0308
859.821	30.7339
862.714	43.7461
865.606	47.6641
868.499	80.23
871.392	129.539
874.284	141.341
877.177	86.9106
880.07	98.9688
882.962	144.219
885.855	182.016
888.748	199.636
891.641	223.96
894.533	251.049
897.426	321.026
900.319	348.152
903.211	351.716
906.104	453.796
908.997	475.079
911.889	502.922
914.782	548.488
917.675	600.244
920.568	739.088
923.46	793.192
926.353	823.499
929.246	900.693
932.138	1005.61
935.031	1039.47
937.924	1074.88
940.817	1352.44
943.709	1289.45
946.602	1225.44
949.495	1306.56
952.387	1340.71
955.28	1365.53
958.173	1397.27
961.065	1343.45
963.958	1328.52
966.851	1367.86
969.744	1223.12
972.636	1234.09
975.529	1193.87
978.422	1116.27
981.314	1020.61
984.207	917.359
987.1	850.744
989.992	776.059
992.885	661.814
995.778	571.27
998.67	480.479
1001.56	454.517
1004.46	415.644
1007.35	279.837
1010.24	243.114
1013.13	200.247
1016.03	111.361
1018.92	146.701
1021.81	108.942
1024.7	26.5513
1027.6	8.57666
1030.49	50.5903
1033.38	51.5806
1036.28	31.6314
1039.17	19.542
1042.06	3.49853
1044.95	110.63
1047.85	348.854
1050.74	853.88
1053.63	1590.55
1056.52	2579.77
1059.42	3322.72
1062.31	4280.17
1065.2	5189.13
1068.1	6106.15
1070.99	6638.59
1073.88	7002.76
1076.77	7180.07
1079.67	6273.21
1082.56	4382.52
1085.45	2374.95
1088.34	992.321
1091.24	308.997
1094.13	110.308
1097.02	74.8789
1099.91	17.0395
1102.81	16.1826
1105.7	8.15918
1108.59	15.7476
1111.49	28.208
1114.38	13.21
1117.27	1.94922
1120.16	23.3438
1123.06	42.3931
1125.95	56.6914
1128.84	53.9648
1131.73	95.3086
1134.63	89.1616
1137.52	109.661
1140.41	123.09
1143.31	122.666
1146.2	108.053
1149.09	152.34
1151.98	176.484
1154.88	194.328
1157.77	200.694
1160.66	204.418
1163.55	234.346
1166.45	193.526
1169.34	206.421
1172.23	172.6
1175.12	199.719
1178.02	224.83
1180.91	205.98
1183.8	174.222
1186.7	211.512
1189.59	182.406
1192.48	229.906
1195.37	200.778
1198.27	219.993
1201.16	184.302
1204.05	188.878
1206.94	213.815
1209.84	196.992
1212.73	205.679
1215.62	164.583
1218.52	139.897
1221.41	168.106
1224.3	138.488
1227.19	107.924
1230.09	118.344
1232.98	102.802
1235.87	48.467
1238.76	57.0481
1241.66	15.645
1244.55	49.7583
1247.44	6.84766
1250.34	77.0051
1253.23	39.1668
1256.12	11.9597
1259.01	7.51587
1261.91	17.2129
1264.8	11.949
1267.69	41.6938
1270.58	36.5647
1273.48	36.9788
1276.37	25.5527
1279.26	48.0669
1282.15	48.1108
1285.05	35.9766
1287.94	39.5925
1290.83	60.7647
1293.73	1.29175
1296.62	50.0437
1299.51	1.16992
