Measurement: Raman, 780 nm, unoriented, Raman Data Processed
Mineral: Khinite
Rruff sample: R080124
Ideal chemistry: Cu^2+^_3_Pb^2+^Te^6+^O_6_(OH)_2_
Locality: 400 ft. level, Empire mine, Tombstone, Arizona
Source: William W. Pinch
Description: Aggregates of dark emerald-green hexagonal prismatic crystals, this is the -3T polytype, previously known as parakhinite. Sample was used in the Hawthorne et al (2008) study
Raman shift (cm-1)	intensity
150.191	0
153.084	0.306142
155.976	0.665252
158.869	0.711652
161.762	0.034192
164.654	0.317277
167.547	0.021209
170.44	0.351069
173.333	0.287592
176.225	1.00322
179.118	0.746931
182.011	1.15592
184.903	1.43271
187.796	2.1861
190.689	2.25533
193.581	2.58638
196.474	2.72395
199.367	2.43278
202.26	1.82011
205.152	0.852688
208.045	0.136583
210.938	0.384887
213.83	0.013874
216.723	0.025622
219.616	0.298784
222.508	0.35158
225.401	0.131784
228.294	0.101866
231.187	0.075836
234.079	0.14682
236.972	0.651224
239.865	1.00484
242.757	1.12673
245.65	1.43694
248.543	0.897619
251.435	1.14237
254.328	1.33771
257.221	1.52515
260.114	1.62268
263.006	1.61976
265.899	1.4559
268.792	1.50632
271.684	1.4259
274.577	1.47426
277.47	1.26165
280.363	1.33116
283.255	1.62156
286.148	2.29243
289.041	2.20467
291.933	2.65668
294.826	3.22094
297.719	3.42772
300.611	3.69517
303.504	3.65123
306.397	3.30196
309.289	3.08527
312.182	2.17996
315.075	1.89251
317.968	2.04367
320.86	1.15328
323.753	1.34619
326.646	1.11413
329.538	0.839668
332.431	0.743595
335.324	0.025969
338.216	0.027804
341.109	0.130673
344.002	0.411989
346.895	0.34144
349.787	0.537547
352.68	0.483825
355.573	0.438155
358.465	0.460644
361.358	0.600064
364.251	0.16798
367.144	0.012417
370.036	0.33722
372.929	0.301534
375.822	0.337499
378.714	0.910198
381.607	0.337306
384.5	0.328017
387.392	0.642449
390.285	0.314346
393.178	0.644136
396.071	0.637533
398.963	0.372331
401.856	0.053147
404.749	0.034844
407.641	0.095816
410.534	0.348733
413.427	0.020781
416.32	0.350009
419.212	0.515786
422.105	0.702138
424.998	1.0096
427.89	1.15935
430.783	1.72432
433.676	1.80004
436.568	2.14029
439.461	1.41335
442.354	1.73724
445.247	0.703772
448.139	0.786325
451.032	0.734272
453.925	0.299208
456.817	0.849169
459.71	1.16427
462.603	0.892262
465.495	0.771694
468.388	0.618225
471.281	1.07943
474.173	0.876498
477.066	1.00341
479.959	1.19065
482.852	0.726996
485.744	0.812187
488.637	1.36798
491.53	1.25619
494.422	1.24111
497.315	1.07454
500.208	1.02959
503.101	0.403922
505.993	0.041307
508.886	0.241503
511.779	0.304665
514.671	0.116083
517.564	0.250235
520.457	0.445842
523.349	0.241514
526.242	0.249777
529.135	0.910522
532.028	1.28422
534.92	1.01007
537.813	1.73313
540.706	1.05259
543.598	1.67179
546.491	1.51638
549.384	1.86515
552.277	1.21267
555.169	1.30621
558.062	0.98421
560.955	1.27637
563.847	0.578845
566.74	0.298751
569.633	0.133615
572.525	0.026031
575.418	0.388192
578.311	0.023629
581.203	0.177355
584.096	0.289393
586.989	0.102243
589.882	0.067353
592.774	0.339977
595.667	0.254644
598.56	0.953511
601.452	1.16016
604.345	1.43653
607.238	2.13146
610.13	2.83707
613.023	2.76996
615.916	2.06932
618.809	1.82916
621.701	1.05307
624.594	1.2233
627.487	0.612124
630.379	0.602691
633.272	0.658222
636.165	0.822948
639.058	0.854863
641.95	0.358011
644.843	1.04687
647.736	0.790173
650.628	1.70692
653.521	1.92284
656.414	3.10784
659.307	5.36548
662.199	7.86404
665.092	11.2781
667.985	14.8422
670.877	17.9429
673.77	20.7843
676.663	20.4744
679.555	16.1075
682.448	10.7078
685.341	6.12513
688.234	4.10428
691.126	2.4345
694.019	1.56827
696.912	1.24312
699.804	0.738699
702.697	0.558908
705.59	0.476748
708.482	0.574864
711.375	0.04298
714.268	0.21056
717.16	0.341848
720.053	0.032504
722.946	0.070248
725.839	0.481388
728.731	0.3347
731.624	0.087893
734.517	0.084862
737.409	0.130126
740.302	0.118223
743.195	0.087689
746.087	0.05375
748.98	0.092984
751.873	0.163837
754.766	0.017581
757.658	0.069473
760.551	0.36162
763.444	0.740352
766.336	0.334126
769.229	0.019372
772.122	0.287374
775.014	0.132211
777.907	0.02313
780.8	0.183185
783.693	0.179994
786.585	0.448253
789.478	0.371537
792.371	0.237244
795.263	0.207808
798.156	0.908432
801.049	0.714911
803.942	0.577723
806.834	0.515342
809.727	0.401891
812.62	0.384838
815.512	0.676188
818.405	0.610829
821.298	0.457141
824.19	0.816354
827.083	0.878712
829.976	0.852684
832.869	0.612442
835.761	1.10578
838.654	0.876339
841.547	0.737749
844.439	1.01469
847.332	0.991281
850.225	0.959432
853.117	0.877571
856.01	0.694031
858.903	1.21778
861.796	1.09804
864.688	0.639487
867.581	1.285
870.474	0.352385
873.366	0.70674
876.259	0.632113
879.152	0.64481
882.044	0.333176
884.937	0.565001
887.83	0.203322
890.723	0.439749
893.615	0.088809
896.508	0.496001
899.401	0.316419
902.293	0.175965
905.186	0.204392
908.079	0.18178
910.971	0.458928
913.864	0.028572
916.757	0.626768
919.65	0.137033
922.542	0.387996
925.435	0.256048
928.328	0.143106
931.22	0.184993
934.113	0.241889
937.006	0.346529
939.899	0.150949
942.791	0.045866
945.684	0.38548
948.577	0.233582
951.469	0.129591
954.362	0.405066
957.255	0.422061
960.148	0.412495
963.04	0.34505
965.933	0.039753
968.826	0.511052
971.718	0.447274
974.611	0.269349
977.504	0.205123
980.396	0.309908
983.289	0.181308
986.182	0.599461
989.074	0.505847
991.967	0.121175
994.86	0.548147
997.753	0.435757
1000.64	0.521536
1003.54	0.518186
1006.43	0.412129
1009.32	0.631211
1012.22	0.480698
1015.11	0.305911
1018	0.341529
1020.89	0.704715
1023.79	0.567959
1026.68	0.376528
1029.57	0.643381
1032.46	0.432183
1035.36	0.211585
1038.25	0.658665
1041.14	0.357364
1044.04	0.627437
1046.93	0.333107
1049.82	0.287844
1052.71	0.691162
1055.61	0.868615
1058.5	0.791988
1061.39	0.522777
1064.29	0.60494
1067.18	0.623374
1070.07	0.666164
1072.96	0.04073
1075.86	0.275411
1078.75	0.548366
1081.64	0.105094
1084.53	0.087652
1087.43	0.462773
1090.32	0.302977
1093.21	0.256588
1096.1	0.422976
1099	0.293126
1101.89	0.10331
1104.78	0.029372
1107.67	0.202852
1110.57	0.389673
1113.46	0.126997
1116.35	0.089035
1119.25	0.656375
1122.14	0.293664
1125.03	0.007358
1127.92	0.444695
1130.82	0.040337
1133.71	0.418659
1136.6	0.462609
1139.49	0.393049
1142.39	0.366029
1145.28	0.108772
1148.17	0.243571
1151.07	0.630414
1153.96	0.406775
1156.85	0.07699
1159.74	0.170008
1162.64	0.173594
1165.53	0.206235
1168.42	0.40233
1171.32	0.016716
1174.21	0.112301
1177.1	0.340854
1179.99	0.106345
1182.88	0.412867
1185.78	0.569136
1188.67	0.205017
1191.56	0.223058
1194.46	0.306191
1197.35	0.095015
1200.24	0.057678
1203.13	0.307146
1206.03	0.253437
1208.92	0.172196
1211.81	0.35557
1214.7	0.302414
1217.6	0.272164
1220.49	0.248159
1223.38	0.500223
1226.28	0.11422
1229.17	0.189665
1232.06	0.002013
1234.95	0.478474
1237.85	0.187107
1240.74	0.366536
1243.63	0.171261
1246.53	0.236454
1249.42	0.017779
1252.31	0.458305
1255.2	0.353578
1258.1	0.467227
1260.99	0.296846
1263.88	0.041702
1266.77	0.562967
1269.67	0.141027
1272.56	0.098874
1275.45	0.435657
1278.35	0.009048
1281.24	0.416814
1284.13	0.755279
1287.02	0.002315
