Measurement: Raman, 785 nm, unoriented, Raman Data Processed
Mineral: Kidwellite
Rruff sample: R070106
Ideal chemistry: NaFe^3+^_9+x_(PO_4_)_6_(OH)_11_3H_2_O (x  1/3)
Locality: Teskov, Czech Republic
Source: Bob Jenkins
Description: Tan colored hemispheres on quartz, associated with meurigite, R070105
Raman shift (cm-1)	intensity
188.806	0
191.699	26.2334
194.592	83.3042
197.484	79.0713
200.377	138.244
203.27	165.9
206.162	162.305
209.055	165.599
211.948	166.251
214.841	161.375
217.733	142.666
220.626	161.374
223.519	200.237
226.411	133.38
229.304	133.5
232.197	170.353
235.089	132.118
237.982	138.361
240.875	120.362
243.768	144.125
246.66	215.311
249.553	103.262
252.446	123.606
255.338	138.864
258.231	178.06
261.124	149.503
264.017	240.419
266.909	207.82
269.802	260.687
272.695	311.813
275.587	303.483
278.48	319.405
281.373	289.021
284.265	360.249
287.158	324.284
290.051	345.066
292.943	232.633
295.836	127.425
298.729	167.555
301.622	126.826
304.514	194.084
307.407	128.198
310.3	124.655
313.192	164.713
316.085	117.224
318.978	6.08545
321.87	63.4683
324.763	18.3061
327.656	46.021
330.549	65.2481
333.441	36.2231
336.334	1.84082
339.227	5.20361
342.119	26.1045
345.012	45.977
347.905	23.7095
350.798	23.3023
353.69	75.7793
356.583	76.6675
359.476	11.5884
362.368	71.1191
365.261	47.4375
368.154	69.1377
371.046	128.814
373.939	160.106
376.832	148.621
379.724	120.654
382.617	101.835
385.51	80.2656
388.403	87.7681
391.295	88.8325
394.188	57.646
397.081	108.919
399.973	145.018
402.866	85.4639
405.759	91.0225
408.651	43.3516
411.544	32.2402
414.437	95.5112
417.33	108.582
420.222	126.295
423.115	131.33
426.008	26.5039
428.9	108.69
431.793	107.424
434.686	84.1074
437.579	123.334
440.471	143.619
443.364	118.05
446.257	160.078
449.149	147.81
452.042	249.529
454.935	92.6533
457.827	132.739
460.72	264.935
463.613	239.973
466.505	220.958
469.398	245.708
472.291	225.983
475.184	219.039
478.076	192.639
480.969	98.52
483.862	139.538
486.754	152.596
489.647	133.048
492.54	141.675
495.433	166.543
498.325	87.0815
501.218	88.6397
504.111	84.8506
507.003	114.616
509.896	77.708
512.789	16.6167
515.681	51.46
518.574	2.51856
521.467	6.20898
524.359	30.9692
527.252	14.9868
530.145	78.8057
533.038	46.5767
535.93	21.3335
538.823	46.7251
541.716	15.8657
544.608	56.4048
547.501	72.2485
550.394	66.9697
553.286	133.795
556.179	113.5
559.072	174.601
561.965	165.49
564.857	190.917
567.75	199.86
570.643	130.943
573.535	199.507
576.428	184.491
579.321	123.606
582.213	105.653
585.106	100.909
587.999	137.457
590.891	62.3921
593.784	86.6831
596.677	76.5879
599.57	97.6313
602.462	46.4502
605.355	88.4136
608.248	49.272
611.14	9.86328
614.033	73.5478
616.926	94.2598
619.818	36.4194
622.711	71.0171
625.604	43.2534
628.497	158.65
631.389	74.3164
634.282	106.709
637.175	68.8716
640.067	102.95
642.96	124.08
645.853	99.9282
648.745	129.636
651.638	121.388
654.531	22.6167
657.424	44.5908
660.316	78.834
663.209	71.2075
666.102	21.6499
668.994	42.8579
671.887	45.1069
674.78	33.5523
677.673	36.0073
680.565	8.22217
683.458	47.7231
686.351	42.3032
689.243	11.2021
692.136	12.8506
695.029	7.49365
697.921	64.9556
700.814	43.2793
703.707	36.2471
706.6	79.2734
709.492	38.1855
712.385	30.5566
715.278	32.5947
718.17	106.793
721.063	21.7461
723.956	80.2549
726.848	57.2173
729.741	89.5244
732.634	58.0195
735.527	40.5688
738.419	77.6304
741.312	53.6577
744.205	43.5757
747.097	49.8911
749.99	70.5674
752.883	82.4238
755.775	54.6543
758.668	53.1758
761.561	75.3945
764.453	75.9331
767.346	47.084
770.239	65.2417
773.132	33.084
776.024	55.7315
778.917	38.98
781.81	6.97852
784.702	8.03857
787.595	30.9521
790.488	25.335
793.38	94.2949
796.273	76.0903
799.166	5.24805
802.058	57.999
804.951	32.332
807.844	96.9121
810.737	8.75684
813.629	84.1167
816.522	99.5254
819.415	80.4966
822.307	22.1626
825.2	10.3442
828.093	64.1196
830.986	117.895
833.878	84.3672
836.771	62.7031
839.664	80.6543
842.556	71.6328
845.449	92.3545
848.342	112.787
851.234	72.9482
854.127	77.1797
857.02	92.0454
859.913	60.6392
862.805	29.3569
865.698	90.5523
868.591	67.8765
871.483	54.9546
874.376	84.521
877.269	74.9062
880.161	99.4917
883.054	61.1738
885.947	7.5625
888.84	96.2461
891.732	8.2749
894.625	172.126
897.518	27.6206
900.41	42.3945
903.303	28.1475
906.196	12.9761
909.088	3.42285
911.981	81.0474
914.874	6.26758
917.766	77.5928
920.659	27.6206
923.552	1.26367
926.445	8.69336
929.337	9.60352
932.23	32.7944
935.123	33.709
938.015	40.397
940.908	11.4375
943.801	13.2378
946.693	12.1216
949.586	18.6255
952.479	3.93897
955.372	3.33789
958.264	20.9605
961.157	47.3252
964.05	21.4072
966.942	53.9048
969.835	91.5938
972.728	120.189
975.62	160.597
978.513	239.887
981.406	351.206
984.299	371.063
987.191	400.736
990.084	518.931
992.977	521.534
995.869	574.613
998.762	665.836
1001.65	710.393
1004.55	694.105
1007.44	676.153
1010.33	558.613
1013.23	493.52
1016.12	406.931
1019.01	297.533
1021.9	216.004
1024.8	238.318
1027.69	144.749
1030.58	63.4053
1033.47	163.773
1036.37	122.832
1039.26	89.9634
1042.15	79.6221
1045.05	43.8735
1047.94	125.553
1050.83	133.322
1053.72	108.009
1056.62	185.165
1059.51	224.666
1062.4	219.606
1065.29	168.82
1068.19	205.009
1071.08	157.575
1073.97	97.9829
1076.87	105.591
1079.76	76.6316
1082.65	16.3696
1085.54	107.415
1088.44	42.6282
1091.33	97.1279
1094.22	38.9341
1097.11	55.8897
1100.01	13.8498
1102.9	12.0642
1105.79	36.3945
1108.68	17.498
1111.58	50.2639
1114.47	63.5005
1117.36	55.937
1120.26	55.8823
1123.15	22.6536
1126.04	13.8159
1128.93	52.6431
1131.83	81.0212
1134.72	76.7395
1137.61	34.9365
1140.5	15.2695
1143.4	59.439
1146.29	120.497
1149.18	86.9089
1152.08	73.6977
1154.97	7.69263
1157.86	64.2532
1160.75	111.796
1163.65	28.927
1166.54	84.2078
1169.43	58.8057
1172.32	27.0469
1175.22	80.8225
1178.11	87.1438
1181	79.3887
1183.89	90.1062
1186.79	139.973
1189.68	41.342
1192.57	61.4414
1195.47	72.9529
1198.36	48.1169
1201.25	10.304
1204.14	40.1931
1207.04	42.7759
1209.93	78.3877
1212.82	60.3115
1215.71	48.3603
1218.61	87.3164
1221.5	34.1892
1224.39	75.804
1227.29	79.0024
1230.18	82.3186
1233.07	19.4326
