Measurement: Raman, 532 nm, unoriented, Raman Data Processed
Mineral: Kimuraite-(Y)
Rruff sample: R050586
Ideal chemistry: CaY_2_(CO_3_)_4_6H_2_O
Locality: Mitsukoshi, Hizen town, Higashimatsuura County, Saga Prefecture, Japan
Source: Marcus Origlieri
Description: Aggregate of white scaly crystals
Measured chemistry: Ca_1.05_(Y_1.57_Nd_0.08_Gd_0.05_Dy_0.05_La_0.04_Er_0.04_Sm_0.02_Ho_0.01_Pr_0.01_Eu_0.01_Yb_0.01_Tb_0.01_Lu_0.01_Ca_0.09_)_Σ=2.00_(CO_3_)_4_·6H_2_O
Raman shift (cm-1)	intensity
193.981	0
196.874	30.3008
199.766	13.291
202.659	26.8262
205.552	183.566
208.445	432.932
211.337	563.227
214.23	595.471
217.123	557.137
220.015	457.869
222.908	454.91
225.801	468.508
228.693	600.988
231.586	574.043
234.479	577.807
237.371	555.949
240.264	586.461
243.157	608.082
246.05	595.59
248.942	536.137
251.835	516.482
254.728	473.978
257.62	467.935
260.513	431.266
263.406	383.83
266.298	350.996
269.191	331.934
272.084	312.213
274.977	252.918
277.869	181.441
280.762	230.623
283.655	160.359
286.547	148.6
289.44	166.768
292.333	109.885
295.226	68.4453
298.118	59.8125
301.011	37.3398
303.904	32.6016
306.796	38.8926
309.689	55.4844
312.582	75.5684
315.474	77.8887
318.367	25.498
321.26	11.5195
324.152	35.0586
327.045	39.4922
329.938	54.3086
332.831	23.8379
335.723	41.2227
338.616	40.6133
341.509	53.0762
344.401	72.4707
347.294	96.4512
350.187	74.7832
353.079	41.3047
355.972	58.666
358.865	15.6797
361.758	19.0098
364.65	8.7832
367.543	45.1797
370.436	15.0723
373.328	41.9766
376.221	45.0137
379.114	50.2031
382.007	29.959
384.899	3.08203
387.792	25.0645
390.685	68.7266
393.577	94.0098
396.47	58.7324
399.363	36.3789
402.255	24.8613
405.148	59.9922
408.041	38.9062
410.933	74.2109
413.826	80.6289
416.719	76.4062
419.612	39.3164
422.504	18.4688
425.397	0.015625
428.29	55.6523
431.182	92.4785
434.075	13.5898
436.968	10.7441
439.861	68.4414
442.753	114.353
445.646	79.3008
448.539	92.3848
451.431	61.4414
454.324	11.291
457.217	10.3926
460.109	39.7559
463.002	16.209
465.895	29.5469
468.788	2.85156
471.68	29.4395
474.573	119.965
477.466	109.154
480.358	126.578
483.251	53.3301
486.144	55.1699
489.036	43.9844
491.929	65.375
494.822	26.7969
497.714	57.3477
500.607	79.4297
503.5	64.7832
506.393	2.17578
509.285	21.5918
512.178	56.7637
515.071	101.883
517.963	30.875
520.856	32.6855
523.749	49.043
526.641	85.0254
529.534	2.15234
532.427	42.1621
535.32	94.7188
538.212	115
541.105	53.1211
543.998	25.8086
546.89	56.2188
549.783	93.4863
552.676	53.6348
555.568	48.0352
558.461	66.2519
561.354	36.5625
564.247	2.13477
567.139	16.2422
570.032	42.1055
572.925	53.8398
575.817	30.1484
578.71	3.83984
581.603	18.4297
584.495	6.07227
587.388	128.719
590.281	83.4316
593.174	71.9941
596.066	67.459
598.959	118.408
601.852	47.9844
604.744	66.5449
607.637	107.18
610.53	102.262
613.423	70.1543
616.315	76.8594
619.208	164.475
622.101	150.277
624.993	106.805
627.886	57.498
630.779	68.0469
633.671	71.6621
636.564	81.9727
639.457	33.8418
642.35	16.8105
645.242	26.7441
648.135	60.9824
651.028	43.4355
653.92	74.8613
656.813	45.4551
659.706	91.6055
662.598	37.3965
665.491	61.2676
668.384	55.4746
671.277	13.6445
674.169	93.2051
677.062	97.4297
679.955	94.9492
682.847	63.7461
685.74	63.3164
688.633	127.553
691.525	184.99
694.418	128.801
697.311	107.252
700.203	58.957
703.096	11.3398
705.989	28.1016
708.882	44.3711
711.774	2.42969
714.667	25.207
717.56	24.7305
720.452	83.7051
723.345	79.7539
726.238	58.9434
729.13	44.6934
732.023	47.4453
734.916	98.4199
737.809	93.9141
740.701	130.934
743.594	152.342
746.487	237.762
749.379	201.541
752.272	229.815
755.165	176.818
758.058	157.258
760.95	120.342
763.843	140.506
766.736	162.973
769.628	108.637
772.521	120.172
775.414	148.492
778.306	63.1465
781.199	32.3398
784.092	11.6562
786.985	7.44922
789.877	39.3301
792.77	56.9453
795.663	87.0938
798.555	33.043
801.448	21.0957
804.341	24.7754
807.233	37.3945
810.126	18.0605
813.019	20.1836
815.912	20.2148
818.804	55.8711
821.697	131.988
824.59	141.414
827.482	77.2617
830.375	25.4414
833.268	7.75977
836.16	60.0195
839.053	54.3809
841.946	124.871
844.838	137.897
847.731	115.811
850.624	67.5918
853.517	91.7617
856.409	115.277
859.302	115.172
862.195	97.584
865.087	71.8594
867.98	48.9766
870.873	98.8731
873.765	58.1914
876.658	90.6387
879.551	38.2207
882.444	43.4453
885.336	0.251953
888.229	44.2207
891.122	38.1367
894.014	36.7754
896.907	63.1504
899.8	132.156
902.692	112.805
905.585	99.8691
908.478	143.852
911.371	118.125
914.263	107.951
917.156	137.824
920.049	120.975
922.941	133.357
925.834	150.307
928.727	144.809
931.62	105.125
934.512	141.56
937.405	208.051
940.298	145.758
943.19	128.777
946.083	179.394
948.976	139.463
951.868	52.0977
954.761	24.2422
957.654	25.8418
960.547	65.2656
963.439	75.7832
966.332	88.7656
969.225	134.498
972.117	113.307
975.01	115.981
977.903	102.603
980.795	42.998
983.688	86.2285
986.581	110.932
989.473	88.0391
992.366	104.693
995.259	55.9004
998.152	59.8477
1001.04	127.18
1003.94	59.4355
1006.83	73.7383
1009.72	117.129
1012.62	113.863
1015.51	103.193
1018.4	71.3828
1021.29	104.801
1024.19	12.168
1027.08	20.2754
1029.97	76.3887
1032.86	21.6738
1035.76	59.5332
1038.65	14.0039
1041.54	12.6543
1044.43	68.2852
1047.33	81.6426
1050.22	124.5
1053.11	189.113
1056.01	283.793
1058.9	446.641
1061.79	658.24
1064.68	743.117
1067.58	626.176
1070.47	589.93
1073.36	414.746
1076.26	366.168
1079.15	448.188
1082.04	655.283
1084.93	887.861
1087.83	1114.42
1090.72	1427.6
1093.61	1855.72
1096.5	2230.17
1099.4	2180.76
1102.29	1511.36
1105.18	702.818
1108.07	272.055
1110.97	126.227
1113.86	53.6484
1116.75	32.0625
1119.64	56.2715
1122.54	95.3613
1125.43	2.07812
1128.32	27.5977
1131.22	37.2461
1134.11	81.2559
1137	45.7383
1139.89	11.1953
1142.79	18.5371
1145.68	38.7891
1148.57	91.5391
1151.46	63.0176
1154.36	9.75
1157.25	5.64453
1160.14	22.4023
1163.04	42.3418
1165.93	14.3906
1168.82	10.9199
1171.71	61.4355
1174.61	107.588
1177.5	88.2051
1180.39	105.955
1183.28	73.9336
1186.18	14.6758
1189.07	32.8125
1191.96	29.8398
1194.86	62.5957
1197.75	136.41
1200.64	147.266
1203.53	86.5703
1206.43	120.57
1209.32	147.953
1212.21	203
1215.1	142.301
1218	51.0195
1220.89	47.6719
1223.78	112.219
1226.67	130.562
1229.57	66.1191
1232.46	117.176
1235.35	90.2949
1238.25	56.2305
1241.14	52.4336
1244.03	83.1426
1246.92	145.154
1249.82	115.275
1252.71	67.3398
1255.6	44.3242
1258.49	186
1261.39	204.711
1264.28	142.707
1267.17	126.787
1270.07	114.334
1272.96	128.244
1275.85	74.4531
1278.74	82.1269
1281.64	123.859
1284.53	97.1035
1287.42	52.0059
1290.31	23.7129
1293.21	32.8555
1296.1	8.9668
1298.99	7.88477
1301.88	0
