Measurement: Raman, 780 nm, unoriented, Raman Data Processed
Mineral: Kimzeyite
Rruff sample: R060148
Ideal chemistry: Ca_3_Zr^4+^_2_(Al_2_Si)O_12_
Locality: Magnet Cove, Arkansas, USA
Source: University of Arizona Mineral Museum
Description: Black dodecahedra mixed with andradite and associated with quartz
Measured chemistry: (Ca_2.97_Mg_0.03_)_Σ=3_(Zr_1.58_Ti_0.42_)_Σ=2_(Si_1.06_Fe^3+^_0.98_Al_0.96_)_Σ=3_O_12_
Raman shift (cm-1)	intensity
150.713	0
153.606	0.666191
156.499	0.923767
159.391	0.391541
162.284	0.824051
165.177	1.0356
168.069	1.78583
170.962	1.69547
173.855	3.06052
176.747	2.99542
179.64	4.88589
182.533	5.25318
185.425	4.96325
188.318	3.07014
191.211	3.23881
194.104	1.78435
196.996	0.67437
199.889	0.317856
202.782	0.457581
205.674	1.30212
208.567	1.7859
211.46	0.940201
214.352	1.52023
217.245	0.899261
220.138	2.65972
223.03	5.03186
225.923	6.35638
228.816	10.0958
231.709	11.8923
234.601	13.5367
237.494	15.9911
240.387	16.3502
243.279	16.8596
246.172	15.6662
249.065	14.878
251.958	12.4404
254.85	11.7997
257.743	12.3916
260.636	12.4638
263.528	12.7858
266.421	14.4418
269.314	16.0637
272.207	18.8238
275.099	20.6071
277.992	24.3654
280.885	29.7891
283.777	36.0323
286.67	41.6463
289.563	48.6832
292.455	51.5661
295.348	56.8258
298.241	59.6946
301.134	61.5579
304.026	61.488
306.919	61.2198
309.812	58.8596
312.704	57.2941
315.597	54.5771
318.49	54.8167
321.382	53.6901
324.275	52.3263
327.168	51.9907
330.06	49.5448
332.953	47.3617
335.846	44.9127
338.739	42.5639
341.631	39.063
344.524	34.6584
347.417	30.3782
350.309	26.5663
353.202	22.1271
356.095	17.0965
358.987	13.0138
361.88	8.66349
364.773	7.93394
367.666	2.20332
370.558	2.35143
373.451	0.899231
376.344	0.644424
379.236	1.83403
382.129	1.49622
385.022	1.16965
387.914	1.60299
390.807	0.385414
393.7	0.146278
396.592	0.665268
399.485	3.64859
402.378	4.12538
405.271	6.76099
408.163	7.60482
411.056	11.2859
413.949	12.2303
416.841	13.3751
419.734	13.7632
422.627	14.9385
425.519	15.0295
428.412	13.9151
431.305	13.1111
434.198	12.7109
437.09	12.2648
439.983	9.3083
442.876	10.2274
445.768	8.33228
448.661	7.10989
451.554	6.83489
454.447	5.9984
457.339	4.85371
460.232	5.42223
463.125	4.36478
466.017	5.22313
468.91	5.59632
471.803	5.85751
474.695	7.64983
477.588	10.7658
480.481	16.7086
483.373	22.3103
486.266	31.7231
489.159	40.9425
492.052	51.7512
494.944	58.8835
497.837	61.5586
500.73	56.4929
503.622	46.4025
506.515	32.3395
509.408	23.3212
512.301	14.9929
515.193	9.62225
518.086	6.33689
520.979	3.84468
523.871	3.23045
526.764	1.80814
529.657	0.822746
532.549	0.235962
535.442	0.589088
538.335	0.244164
541.227	0.610115
544.12	0.537201
547.013	0.738434
549.906	0.042244
552.798	0.116539
555.691	1.12183
558.584	1.30014
561.476	2.3898
564.369	2.63079
567.262	3.23107
570.154	3.40881
573.047	3.88137
575.94	3.42983
578.833	4.08473
581.725	3.65485
584.618	3.69819
587.511	3.31717
590.403	3.357
593.296	2.24984
596.189	1.54639
599.082	1.51977
601.974	1.65016
604.867	1.37519
607.76	0.842018
610.652	0.347427
613.545	0.269547
616.438	0.32753
619.33	0.637054
622.223	0.02018
625.116	0.856956
628.009	0.659134
630.901	0.539635
633.794	0.506226
636.687	0.685478
639.579	0.130173
642.472	0.327316
645.365	0.651825
648.257	0.325119
651.15	0.05043
654.043	0.084618
656.936	0.748573
659.828	0.250076
662.721	0.939331
665.614	1.6147
668.506	1.07069
671.399	1.31506
674.292	1.62479
677.184	1.36946
680.077	0.797394
682.97	0.480171
685.862	1.65733
688.755	2.32255
691.648	2.84267
694.541	3.35208
697.433	3.76083
700.326	5.75571
703.219	6.60938
706.111	8.6314
709.004	8.05924
711.897	8.99048
714.789	10.0763
717.682	9.70706
720.575	11.0619
723.468	11.3398
726.36	10.2854
729.253	9.91396
732.146	10.2591
735.038	10.1139
737.931	9.9848
740.824	8.52576
743.716	8.69266
746.609	7.80331
749.502	8.36546
752.395	8.17532
755.287	8.28813
758.18	7.86523
761.073	8.59261
763.965	8.21739
766.858	8.26056
769.751	9.10748
772.644	10.1776
775.536	9.98675
778.429	9.88986
781.322	9.43586
784.214	9.35026
787.107	7.39982
790	6.99957
792.892	5.96399
795.785	5.40858
798.678	2.60764
801.571	2.41112
804.463	2.02401
807.356	0.927029
810.249	0.832325
813.141	0.734657
816.034	0.327183
818.927	0.422401
821.819	0.141277
824.712	0.07803
827.605	0.766994
830.497	0.444416
833.39	0.783707
836.283	0.086655
839.176	0.147827
842.068	1.03033
844.961	0.535378
847.854	0.798359
850.746	0.947758
853.639	1.19097
856.532	1.70579
859.424	2.65449
862.317	3.13303
865.21	3.86829
868.103	2.62223
870.995	2.90982
873.888	3.12521
876.781	2.27722
879.673	3.00027
882.566	1.82091
885.459	0.883194
888.351	1.07988
891.244	1.59627
894.137	0.015827
897.03	0.046921
899.922	0.598576
902.815	0.175667
905.708	0.60815
908.6	0.079365
911.493	0.334335
914.386	1.32436
917.278	1.39532
920.171	1.56043
923.064	1.28408
925.957	1.59862
928.849	1.85787
931.742	2.44856
934.635	2.18575
937.527	2.42734
940.42	3.09882
943.313	3.50002
946.205	4.88474
949.098	6.63523
951.991	9.13886
954.884	11.4148
957.776	13.4294
960.669	14.0605
963.562	11.9203
966.454	4.8521
969.347	1.78818
972.24	0.939156
975.132	0.377068
978.025	0.268589
980.918	0.098133
983.811	0.270634
986.703	0.419472
989.596	0.934963
992.489	0.108807
995.381	0.35004
998.274	0.311977
1001.17	1.27028
1004.06	1.13682
1006.95	1.23818
1009.85	1.63974
1012.74	0.868736
1015.63	1.82984
1018.52	1.78577
1021.42	1.46568
1024.31	2.09668
1027.2	2.11192
1030.09	2.39451
1032.99	3.09562
1035.88	2.15771
1038.77	2.60845
1041.66	2.9959
1044.56	3.13574
1047.45	2.67584
1050.34	2.36091
1053.23	2.7058
1056.13	2.4813
1059.02	2.50916
1061.91	1.76475
1064.81	2.5854
1067.7	1.77725
1070.59	1.73913
1073.48	2.68
1076.38	1.74591
1079.27	1.70102
1082.16	1.15548
1085.06	2.01933
1087.95	1.79215
1090.84	1.53433
1093.73	1.52363
1096.63	1.21903
1099.52	1.51454
1102.41	1.19223
1105.3	1.39743
1108.2	1.3727
1111.09	0.696976
1113.98	0.768135
1116.88	1.46818
1119.77	0.517929
1122.66	0.883301
1125.55	0.506844
1128.45	0.369217
1131.34	0.102386
1134.23	0.797127
1137.12	0.32943
1140.02	1.14847
1142.91	0.845528
1145.8	2.93082
1148.69	1.43444
1151.59	0.929962
1154.48	0.570679
1157.37	1.03075
1160.27	0.326584
1163.16	1.33196
1166.05	1.22064
1168.94	1.96157
1171.84	1.06612
1174.73	1.05447
1177.62	1.94985
1180.51	1.69457
1183.41	1.74751
1186.3	0.997879
1189.19	0.615448
