Measurement: Raman, 785 nm, unoriented, Raman Data Processed
Mineral: Kingite
Rruff sample: R060997
Ideal chemistry: Al_3_(PO_4_)_2_F_2_(OH)7H_2_O
Locality: Clinton, South Australia
Source: Bob Jenkins
Description: White consolidated micron-sized laths
Raman shift (cm-1)	intensity
183.721	0
186.614	1060.46
189.506	1411.38
192.399	886.906
195.292	349.598
198.185	146.703
201.077	32.1211
203.97	28.9727
206.863	3.07422
209.755	70.1094
212.648	491.406
215.541	1259.39
218.433	1714.94
221.326	1628.44
224.219	1137.9
227.112	617.363
230.004	341.887
232.897	156.863
235.79	217.711
238.682	162.152
241.575	46.1016
244.468	169.629
247.36	85.3398
250.253	425.582
253.146	893.164
256.038	1654.77
258.931	1724.84
261.824	1571.24
264.717	869.707
267.609	393.918
270.502	30.8789
273.395	53.4844
276.287	140.641
279.18	813.457
282.073	1321.28
284.966	1493.85
287.858	1293.25
290.751	1292.11
293.644	1561.54
296.536	2100.88
299.429	2621.71
302.322	2658.63
305.214	1766.82
308.107	1070.05
311	477.422
313.892	135.242
316.785	134.703
319.678	405.84
322.571	1278.46
325.463	2335.89
328.356	3067.11
331.249	2976.98
334.141	2069.14
337.034	1718.9
339.927	1238.13
342.82	1160.85
345.712	1332.97
348.605	1429.46
351.498	1367.83
354.39	1149.95
357.283	918.66
360.176	604.363
363.068	157.438
365.961	100.922
368.854	95.1875
371.747	140.328
374.639	286.297
377.532	254.066
380.425	281.457
383.317	396.902
386.21	359.273
389.103	323.262
391.995	726.719
394.888	827.844
397.781	875.762
400.673	670.902
403.566	732.262
406.459	658.992
409.351	986.258
412.244	1636.64
415.137	2534.84
418.03	2313.06
420.922	1732.38
423.815	857.809
426.708	529.734
429.6	264.156
432.493	91.9531
435.386	99.0391
438.279	130.644
441.171	33.2539
444.064	73.0039
446.957	246.356
449.849	314.223
452.742	189.949
455.635	382.18
458.527	759.348
461.42	1051.47
464.313	1421.77
467.205	2011.07
470.098	2640.7
472.991	3173.81
475.884	4097.86
478.776	4677.55
481.669	5341.84
484.562	5760.48
487.454	5810.99
490.347	5493.65
493.24	4265.69
496.132	3285.49
499.025	2701.58
501.918	1915.39
504.811	1651
507.703	1247.62
510.596	1108.64
513.489	903.301
516.381	736.148
519.274	439.809
522.167	216.523
525.059	202.836
527.952	10.2852
530.845	60.1562
533.737	91.2148
536.63	314.262
539.523	401.356
542.416	677.531
545.308	852.301
548.201	1130.79
551.094	1286.07
553.986	1392.24
556.879	1164.29
559.772	987.629
562.665	645.793
565.557	290.867
568.45	29.332
571.343	90.9922
574.235	82.9961
577.128	154.812
580.021	259.883
582.913	491.043
585.806	815.324
588.699	956.555
591.591	1239.23
594.484	1713.84
597.377	2296.42
600.27	2692.22
603.162	2901.58
606.055	2718.43
608.948	2445.37
611.84	2115.56
614.733	1726.64
617.626	1760.91
620.519	1608.19
623.411	1481.3
626.304	1511.34
629.197	1353.22
632.089	1198.6
634.982	1294.51
637.875	901.008
640.767	873.606
643.66	751.934
646.553	431.949
649.446	600.141
652.338	609.039
655.231	696.535
658.124	569.606
661.016	505.684
663.909	246.098
666.802	171.981
669.694	92.043
672.587	68.7383
675.48	59.5703
678.372	222.398
681.265	148.059
684.158	77.0898
687.051	3.24219
689.943	49.293
692.836	36.0234
695.729	258.18
698.621	176.887
701.514	116.144
704.407	59.3203
707.299	48.2109
710.192	16.1016
713.085	72.5469
715.977	306.918
718.87	69.8281
721.763	293.231
724.656	269.211
727.548	218.125
730.441	175.922
733.334	28.0352
736.226	192
739.119	149.481
742.012	236.453
744.904	166.102
747.797	257.527
750.69	199.824
753.583	190.426
756.475	188.695
759.368	130.648
762.261	138.262
765.153	379.418
768.046	287.996
770.939	262.176
773.832	122.027
776.724	254.277
779.617	407.477
782.51	307.254
785.402	201.281
788.295	359.836
791.188	337.191
794.08	271.148
796.973	205.863
799.866	229.34
802.759	260.516
805.651	284.188
808.544	432.812
811.437	386.508
814.329	402.32
817.222	332.973
820.115	256.359
823.007	293.051
825.9	307.641
828.793	259.033
831.686	147.643
834.578	178.457
837.471	138.109
840.364	84.459
843.256	14.3496
846.149	70.9316
849.042	123.418
851.934	57.8633
854.827	66.3535
857.72	167.019
860.612	82.8516
863.505	46.4551
866.398	133.717
869.29	39.5059
872.183	515.615
875.076	104.814
877.969	184.482
880.861	213.414
883.754	337.986
886.647	80.041
889.539	136.127
892.432	285.522
895.325	420.715
898.217	266.137
901.11	122.742
904.003	207.746
906.896	196.924
909.788	142.002
912.681	92.3965
915.574	89.6777
918.466	58.9629
921.359	85.8652
924.252	66.3906
927.144	29.0762
930.037	27.4844
932.93	165.281
935.823	65.2109
938.715	7.40234
941.608	3.69336
944.501	34.0117
947.393	102.811
950.286	11.3691
953.179	150.266
956.072	232.496
958.964	333.641
961.857	441.559
964.75	690.754
967.642	956.898
970.535	1146.78
973.428	1231.94
976.32	1434.16
979.213	1365.39
982.106	1664.22
984.999	1779.51
987.891	1650.63
990.784	2196.7
993.677	2483.38
996.569	3330.49
999.462	4309.83
1002.36	5176.22
1005.25	5797.22
1008.14	6280.86
1011.03	6449.84
1013.92	6421.24
1016.82	6401.63
1019.71	5987.34
1022.6	4762.44
1025.5	3286.61
1028.39	2426.83
1031.28	1496.79
1034.17	964.023
1037.07	657.246
1039.96	802.041
1042.85	1127.45
1045.74	889.941
1048.64	828.383
1051.53	1003.2
1054.42	1106.81
1057.32	1058.15
1060.21	967.852
1063.1	604.297
1065.99	237.242
1068.89	364.625
1071.78	266.367
1074.67	277.352
1077.57	210.356
1080.46	340.039
1083.35	268.49
1086.24	416.752
1089.14	281.67
1092.03	347.99
1094.92	420.852
1097.81	650.258
1100.71	118.404
1103.6	66.5918
1106.49	104.648
1109.38	32.998
1112.28	72.5606
1115.17	100.781
1118.06	17.8379
1120.95	280.959
1123.85	132.789
1126.74	269.434
1129.63	288.44
1132.53	245.705
1135.42	113.289
1138.31	15.0996
1141.2	98.5371
1144.1	127.711
1146.99	61.1074
1149.88	70.6094
1152.78	52.6055
1155.67	62.1484
1158.56	264.209
1161.45	312.455
1164.35	323.865
1167.24	481.404
1170.13	441.578
1173.02	461.039
1175.92	402.871
1178.81	246.117
1181.7	179.141
1184.6	189.713
1187.49	5.25
1190.38	33.1875
1193.27	42.6211
1196.16	94.7793
1199.06	165.045
1201.95	22.3281
1204.84	79.9785
1207.74	7.50391
1210.63	55.4082
1213.52	64.7695
1216.41	202.018
1219.31	206.147
1222.2	374.875
1225.09	199.982
1227.98	261.307
1230.88	208.6
1233.77	188.894
1236.66	88.8379
1239.56	122.695
1242.45	187.801
1245.34	145.248
1248.23	133.828
1251.13	30.7441
1254.02	5.89062
1256.91	89.4902
1259.81	28.4375
1262.7	23.4961
1265.59	0
