Measurement: Raman, 532 nm, unoriented, Raman Data Processed
Mineral: Kinoshitalite
Rruff sample: R070656
Ideal chemistry: BaMg_3_(Si_2_Al_2_)O_10_(OH)_2_
Locality: Hokkejino, Kyoto Prefecture, Kinki Region, Honshu Island, Japan
Source: Michael Scott
Description: Yellowish brown platy crystals in granular matrix of tephroite
Raman shift (cm-1)	intensity
131.201	0
134.575	78.0449
137.95	81.8125
141.325	1.9668
144.7	39.0478
148.075	30.7002
151.449	81.7861
154.824	17.3291
158.199	82.1807
161.574	10.7197
164.949	64.3242
168.323	21.8223
171.698	43.8398
175.073	14.419
178.448	0.741211
181.823	78.8311
185.198	77.5225
188.572	131.088
191.947	110.228
195.322	171.286
198.697	270.726
202.072	392.403
205.446	623.953
208.821	774.161
212.196	895.22
215.571	755.582
218.946	549.229
222.321	324.846
225.695	268.481
229.07	217.906
232.445	137.435
235.82	8.49707
239.195	102.507
242.57	70.7197
245.944	5.84375
249.319	78.0147
252.694	29.375
256.069	25.9404
259.443	7.54004
262.818	190.88
266.193	177.116
269.568	169.786
272.943	252.478
276.318	105.282
279.692	268.067
283.067	290.102
286.442	180.198
289.817	262.933
293.192	226.074
296.567	123.955
299.941	56.165
303.316	105.186
306.691	109.653
310.066	197.393
313.441	182.476
316.815	244.196
320.19	212.605
323.565	288.174
326.94	298.319
330.315	357.206
333.69	229.02
337.064	148.088
340.439	159.358
343.814	261.234
347.189	211.329
350.564	215.585
353.938	176.242
357.313	156.654
360.688	173.739
364.063	173.875
367.438	123.667
370.812	114.557
374.187	111.614
377.562	19.1484
380.937	85.6943
384.312	24.7451
387.687	67.4277
391.061	82.0156
394.436	44.3086
397.811	40.1895
401.186	7.875
404.561	38.2256
407.935	48.2139
411.31	70.2207
414.685	34.1055
418.06	78.4189
421.435	45.832
424.81	153.812
428.184	121.439
431.559	196.368
434.934	179.69
438.309	204.648
441.684	192.71
445.058	141.727
448.433	109.982
451.808	88.2256
455.183	131.034
458.558	91.6309
461.933	33.7959
465.307	29.1572
468.682	10.3262
472.057	60.54
475.432	69.8955
478.807	50.4873
482.181	102.427
485.556	182.069
488.931	199.602
492.306	131.217
495.681	146.565
499.055	123.829
502.43	76.7588
505.805	118.342
509.18	114.717
512.555	129.426
515.929	249.59
519.304	212.639
522.679	98.9228
526.054	170.845
529.429	258.072
532.804	208.132
536.178	311.709
539.553	262.992
542.928	373.272
546.303	397.489
549.678	422.098
553.053	257.265
556.427	273.613
559.802	256.669
563.177	221.803
566.552	367.465
569.927	253.735
573.301	127.486
576.676	76.3731
580.051	209.575
583.426	140.926
586.801	88.6006
590.176	44.0244
593.55	82.0508
596.925	79.2344
600.3	14.9795
603.675	32.1934
607.05	28.7725
610.424	23.6934
613.799	8.52148
617.174	94.4346
620.549	120.292
623.924	48.5459
627.298	126.685
630.673	62.5557
634.048	220.34
637.423	398.719
640.798	677.506
644.173	894.004
647.547	1264.09
650.922	1637.23
654.297	1758.15
657.672	1570.59
661.047	927.243
664.421	544.695
667.796	354.181
671.171	292.096
674.546	138.335
677.921	84.4648
681.295	76.8574
684.67	116.137
688.045	104.929
691.42	113.016
694.795	287.908
698.17	428.631
701.544	333.827
704.919	385.771
708.294	411.183
711.669	515.444
715.044	658.719
718.418	539.039
721.793	568.124
725.168	521.191
728.543	558.962
731.918	445.953
735.293	520.999
738.667	465.837
742.042	382.466
745.417	348.033
748.792	213.326
752.167	152.935
755.541	146.148
758.916	134.853
762.291	0.236328
765.666	42.2012
769.041	47.9902
772.415	6.29981
775.79	44.6514
779.165	108.78
782.54	83.2715
785.915	110.541
789.29	235.358
792.664	318.159
796.039	319.856
799.414	398.201
802.789	362.486
806.164	294.398
809.538	285.656
812.913	295.331
816.288	227.803
819.663	221.607
823.038	118.872
826.413	140.62
829.787	72.0811
833.162	161.721
836.537	141.668
839.912	155.545
843.287	138.984
846.661	34.7432
850.036	12.0713
853.411	54.748
856.786	66.5723
860.161	0.855469
863.535	31.0352
866.91	9.69043
870.285	7.94141
873.66	37.8203
877.035	71.8467
880.41	49.2256
883.784	16.9531
887.159	107.275
890.534	72.2773
893.909	70.6777
897.284	44.3428
900.659	214.904
904.033	205.531
907.408	284.231
910.783	219.279
914.158	118.403
917.533	150.315
920.907	200.98
924.282	187.725
927.657	257.389
931.032	353.292
934.407	265.169
937.782	267.984
941.156	379.6
944.531	353.976
947.906	358.276
951.281	447.729
954.656	333.242
958.03	174.976
961.405	244.297
964.78	239.969
968.155	155.193
971.53	72.085
974.904	120.304
978.279	153.764
981.654	187.816
985.029	113.53
988.404	40.0557
991.779	84.6484
995.153	52.7637
998.528	33.043
1001.9	78.5127
1005.28	49.8711
1008.65	38.6377
1012.03	0.584961
1015.4	9.43945
1018.78	19.4717
1022.15	108.057
1025.53	98.5117
1028.9	12.6348
1032.28	6.13672
1035.65	100.046
1039.03	70.0469
1042.4	18.1123
1045.78	46.6709
1049.15	49.0459
1052.53	89.9981
1055.9	160.971
1059.28	133.089
1062.65	82.8232
1066.03	117.651
1069.4	115.174
1072.77	210.651
1076.15	214.277
1079.52	227.243
1082.9	362.38
1086.27	458.364
1089.65	272.118
1093.02	228.231
1096.4	224.542
1099.77	181.285
1103.15	100.056
1106.52	215.232
1109.9	15.9072
1113.27	82.5303
1116.65	41.0547
1120.02	153.05
1123.4	86.5977
1126.77	113.728
1130.15	117.746
1133.52	79.2871
1136.9	84.8848
1140.27	30.8789
1143.64	74.084
1147.02	265.137
1150.39	106.975
1153.77	130.228
1157.14	116.67
1160.52	18.8965
1163.89	160.713
1167.27	182.277
1170.64	172.523
1174.02	81.4356
1177.39	176.225
1180.77	84.8945
1184.14	85.5957
1187.52	143.455
1190.89	132.775
1194.27	181.94
1197.64	86.4004
1201.02	152.565
1204.39	114.51
1207.77	112.441
1211.14	108.119
1214.52	45.9121
1217.89	15.041
1221.27	150.568
1224.64	88.375
1228.02	64.5234
1231.39	81.3125
1234.77	6.41602
1238.14	84.0508
1241.52	201.004
1244.89	197.731
1248.27	128.779
1251.64	88.9043
1255.01	99.5293
1258.39	73.6231
1261.76	16.7734
1265.14	134.9
1268.51	75.5215
1271.89	20.4102
1275.26	111.631
1278.64	171.34
1282.01	189.596
1285.39	120.807
1288.76	87.2949
1292.14	84.4102
1295.51	101.512
1298.89	96.6758
1302.26	171.297
