Measurement: Raman, 780 nm, unoriented, Raman Data Processed
Mineral: Kinoshitalite
Rruff sample: R070656
Ideal chemistry: BaMg_3_(Si_2_Al_2_)O_10_(OH)_2_
Locality: Hokkejino, Kyoto Prefecture, Kinki Region, Honshu Island, Japan
Source: Michael Scott
Description: Yellowish brown platy crystals in granular matrix of tephroite
Raman shift (cm-1)	intensity
112.596	0
115.971	116.697
119.345	157.928
122.72	62.3902
126.095	112.256
129.47	51.9251
132.845	179.675
136.219	7.09027
139.594	12.0552
142.969	167.073
146.344	96.9383
149.719	11.6564
153.094	72.6072
156.468	102.51
159.843	128.714
163.218	18.3943
166.593	3.67685
169.968	29.9919
173.342	38.6947
176.717	68.6243
180.092	114.02
183.467	1.30576
186.842	2.74536
190.216	77.4104
193.591	234.893
196.966	203.569
200.341	467.134
203.716	718.644
207.091	1060.81
210.465	1354.29
213.84	1318.02
217.215	928.975
220.59	645.618
223.965	268.496
227.339	245.547
230.714	81.3273
234.089	58.6988
237.464	11.8269
240.839	39.9812
244.214	136.711
247.588	75.3433
250.963	171.805
254.338	29.7382
257.713	28.6543
261.088	62.3768
264.462	102.109
267.837	148.94
271.212	244.186
274.587	316.867
277.962	365.938
281.337	364.947
284.711	500.935
288.086	491.305
291.461	265.052
294.836	245.758
298.211	103.494
301.586	76.0745
304.96	49.6898
308.335	24.3189
311.71	98.015
315.085	117.996
318.46	275.505
321.834	248.286
325.209	222.303
328.584	226.119
331.959	198.232
335.334	177.943
338.709	80.4417
342.083	33.761
345.458	183.548
348.833	121.342
352.208	137.843
355.583	91.4994
358.957	32.2688
362.332	0.373217
365.707	1.39046
369.082	27.3408
372.457	88.5737
375.832	1.47368
379.206	77.9406
382.581	32.9096
385.956	14.8822
389.331	24.3461
392.706	9.77762
396.08	11.824
399.455	23.0287
402.83	130.34
406.205	151.182
409.58	58.2399
412.954	129.624
416.329	153.625
419.704	123.691
423.079	208.173
426.454	119.064
429.829	168.62
433.203	97.4855
436.578	162.083
439.953	253.994
443.328	179.049
446.703	138.128
450.077	178.26
453.452	140.405
456.827	204.71
460.202	102.486
463.577	28.9342
466.952	54.5787
470.326	160.914
473.701	94.2789
477.076	84.2481
480.451	130.226
483.826	98.8949
487.2	160.093
490.575	52.0798
493.95	34.7973
497.325	96.6207
500.7	96.9046
504.075	4.66045
507.449	8.15704
510.824	9.0499
514.199	58.0759
517.574	76.1214
520.949	71.6847
524.323	79.9957
527.698	65.0499
531.073	42.4709
534.448	85.2958
537.823	15.0778
541.198	0.82028
544.572	13.4329
547.947	132.933
551.322	185.689
554.697	179.123
558.072	162.204
561.447	172.575
564.821	205.486
568.196	171.304
571.571	228.745
574.946	210.856
578.321	132.69
581.695	128.274
585.07	241.073
588.445	165.837
591.82	57.1899
595.195	2.77895
598.569	61.1525
601.944	4.45974
605.319	176.156
608.694	6.83532
612.069	57.7254
615.444	1.11509
618.818	9.07769
622.193	87.4298
625.568	108.481
628.943	110.566
632.318	156.548
635.692	307.702
639.067	579.694
642.442	753.862
645.817	1233.38
649.192	1834.25
652.567	2230.23
655.941	2148.89
659.316	1324.46
662.691	875.361
666.066	517.637
669.441	372.841
672.816	290.478
676.19	175.289
679.565	181.99
682.94	65.9635
686.315	11.7938
689.69	20.8787
693.064	32.4439
696.439	16.0939
699.814	85.7622
703.189	122.451
706.564	64.86
709.938	202.481
713.313	244.016
716.688	269.693
720.063	225.304
723.438	234.851
726.813	299.679
730.187	280.619
733.562	305.3
736.937	281.482
740.312	285.766
743.687	213.57
747.062	261.111
750.436	159.871
753.811	178.121
757.186	80.8231
760.561	59.4735
763.936	26.4245
767.31	18.7075
770.685	1.84728
774.06	5.15643
777.435	12.9045
780.81	111.767
784.184	12.5733
787.559	140.889
790.934	140.222
794.309	167.772
797.684	253.184
801.059	295.691
804.433	452.751
807.808	509.024
811.183	446.253
814.558	240.994
817.933	206.213
821.308	169.865
824.682	87.216
828.057	214.133
831.432	153.498
834.807	230.93
838.182	415.155
841.557	562.396
844.931	244.077
848.306	197.048
851.681	150.944
855.056	131.214
858.431	91.7665
861.805	7.09689
865.18	36.1707
868.555	71.8471
871.93	31.7401
875.305	5.53126
878.679	38.0821
882.054	32.63
885.429	9.07722
888.804	10.703
892.179	26.0646
895.553	28.6737
898.928	42.338
902.303	56.0469
905.678	103.992
909.053	44.0966
912.428	97.9279
915.802	141.073
919.177	150.869
922.552	134.73
925.927	160.094
929.302	307.146
932.677	214.879
936.051	270.84
939.426	355.4
942.801	378.601
946.176	322.51
949.551	313.204
952.925	331.591
956.3	309.64
959.675	182.335
963.05	184.109
966.425	151.866
969.799	74.5929
973.174	19.5229
976.549	48.2978
979.924	8.90918
983.299	1.18897
986.674	0.532491
990.048	41.0788
993.423	32.6298
996.798	15.6415
1000.17	22.0489
1003.55	5.88368
1006.92	10.3161
1010.3	68.1639
1013.67	41.3958
1017.05	72.8566
1020.42	53.2479
1023.8	18.4819
1027.17	43.0339
1030.55	5.67712
1033.92	0.702765
1037.3	9.55474
1040.67	81.0062
1044.05	53.1236
1047.42	30.8198
1050.8	81.5687
1054.17	100.062
1057.55	96.4859
1060.92	70.1634
1064.29	12.2913
1067.67	64.1694
1071.04	24.6249
1074.42	66.7211
1077.79	239.105
1081.17	330.568
1084.54	419.133
1087.92	380.27
1091.29	230.839
1094.67	134.315
1098.04	56.5029
1101.42	48.5915
1104.79	83.7469
1108.17	29.7899
1111.54	13.398
1114.92	52.713
1118.29	8.2643
1121.67	2.76423
1125.04	17.557
1128.42	8.40059
1131.79	88.1993
1135.17	40.706
1138.54	52.0996
1141.91	1.81208
1145.29	19.6363
1148.66	50.0315
1152.04	46.9312
1155.41	28.1223
1158.79	61.4442
1162.16	62.4702
1165.54	66.6732
1168.91	75.0621
1172.29	38.7426
1175.66	76.1551
1179.04	83.5306
1182.41	19.8559
1185.79	54.6534
1189.16	75.9836
1192.54	45.7235
1195.91	11.7288
1199.29	37.6726
1202.66	1.2058
1206.04	9.46544
1209.41	61.3776
1212.79	112.765
1216.16	17.315
1219.54	32.5801
1222.91	51.1669
1226.29	99.0486
1229.66	23.0966
1233.04	97.5851
1236.41	11.0663
1239.79	20.5741
1243.16	38.337
1246.54	7.25299
1249.91	26.2786
1253.28	25.7952
1256.66	11.8399
1260.03	4.72187
1263.41	48.449
1266.78	91.7172
1270.16	1.28093
1273.53	76.9218
