Measurement: Raman, 785 nm, unoriented, Raman Data Processed
Mineral: Kipushite
Rruff sample: R060826
Ideal chemistry: Cu^2+^_6_(PO_4_)_2_(OH)_6_H_2_O
Locality: Shaba Provence, Zaire
Source: Michael Scott
Description: Spherical aggregates of medium and dark greenish blue mineral associated with pseudo-kipushite
Raman shift (cm-1)	intensity
120.564	0
123.456	5.47766
126.349	249.493
129.242	751.894
132.134	1192.33
135.027	1125.11
137.92	655.718
140.812	387.53
143.705	549.19
146.598	749.778
149.49	1014.54
152.383	863.232
155.276	632.985
158.169	539.67
161.061	613.297
163.954	531.505
166.847	380.32
169.739	329.116
172.632	283.947
175.525	251.029
178.417	186.457
181.31	143.64
184.203	121.525
187.096	97.6646
189.988	65.9792
192.881	81.5817
195.774	57.4712
198.666	30.7257
201.559	13.0142
204.452	3.75983
207.345	11.356
210.237	45.8549
213.13	4.30389
216.023	17.5593
218.915	37.8347
221.808	5.4845
224.701	20.6455
227.593	13.8221
230.486	17.5627
233.379	13.7062
236.272	22.7364
239.164	0.576416
242.057	41.3503
244.95	41.5045
247.842	39.6089
250.735	48.6235
253.628	53.4187
256.52	58.8018
259.413	65.9504
262.306	51.4133
265.199	57.9208
268.091	32.6132
270.984	36.3948
273.877	28.0074
276.769	19.804
279.662	19.8284
282.555	22.0533
285.447	4.10544
288.34	7.87112
291.233	8.24869
294.125	20.839
297.018	10.3441
299.911	5.19074
302.804	24.9052
305.696	26.4077
308.589	48.0667
311.482	30.4869
314.374	53.9071
317.267	60.6397
320.16	21.8258
323.053	16.6299
325.945	20.6844
328.838	22.6102
331.731	25.5674
334.623	53.4575
337.516	35.6065
340.409	18.7484
343.301	35.4475
346.194	50.2708
349.087	59.2141
351.98	68.1913
354.872	92.4129
357.765	87.3922
360.658	104.694
363.55	87.3949
366.443	81.046
369.336	63.3871
372.228	45.2246
375.121	26.0395
378.014	36.5252
380.907	61.3777
383.799	30.6708
386.692	15.2082
389.585	22.8539
392.477	17.31
395.37	0.041199
398.263	9.35806
401.156	19.4872
404.048	13.3009
406.941	4.76242
409.834	23.0104
412.726	0.698914
415.619	16.222
418.512	53.3361
421.404	46.4627
424.297	65.3043
427.19	108.285
430.082	134.741
432.975	159.791
435.868	206.334
438.761	230.869
441.653	326.676
444.546	408.821
447.439	388.826
450.331	440.722
453.224	331.882
456.117	233.843
459.01	175.304
461.902	184.208
464.795	167.404
467.688	204.463
470.58	258.865
473.473	284.676
476.366	323.69
479.258	310.316
482.151	246.836
485.044	190.244
487.937	153.19
490.829	81.9403
493.722	82.5008
496.615	68.8347
499.507	36.5974
502.4	37.6882
505.293	24.0682
508.185	26.3742
511.078	32.2873
513.971	38.1275
516.864	27.7445
519.756	54.5763
522.649	44.0416
525.542	37.0377
528.434	56.1469
531.327	52.6546
534.22	23.6126
537.112	32.7473
540.005	55.3715
542.898	34.6905
545.79	12.5721
548.683	7.33404
551.576	2.43399
554.469	18.5389
557.361	13.5057
560.254	15.5468
563.147	25.0211
566.039	10.6389
568.932	8.41287
571.825	11.7189
574.717	26.4381
577.61	33.4333
580.503	35.565
583.396	38.6662
586.288	43.6191
589.181	35.2534
592.074	71.1436
594.966	87.5587
597.859	100.788
600.752	159.642
603.644	144.231
606.537	185.075
609.43	150.275
612.323	125.156
615.215	99.1968
618.108	65.2241
621.001	62.0342
623.893	35.2078
626.786	37.6629
629.679	24.2822
632.572	49.5088
635.464	37.6106
638.357	22.6471
641.25	67.7795
644.142	44.6199
647.035	30.8227
649.928	15.9169
652.82	1.93402
655.713	18.7863
658.606	34.5287
661.499	13.9892
664.391	1.5466
667.284	19.3705
670.177	38.8085
673.069	15.9184
675.962	8.71994
678.855	66.5708
681.747	26.8561
684.64	15.6495
687.533	12.2117
690.426	44.9449
693.318	34.7667
696.211	46.4149
699.104	29.9131
701.996	9.3533
704.889	2.83579
707.782	36.6911
710.674	43.8146
713.567	38.4984
716.46	37.3052
719.352	45.7172
722.245	10.0206
725.138	58.7262
728.031	21.2242
730.923	56.9856
733.816	14.1419
736.709	36.3129
739.601	1.41174
742.494	21.5001
745.387	34.484
748.279	55.2949
751.172	35.6176
754.065	44.1298
756.958	19.9557
759.85	52.7463
762.743	20.4534
765.636	44.3687
768.528	13.2876
771.421	14.1419
774.314	17.29
777.207	23.0616
780.099	48.6779
782.992	39.6078
785.885	18.7498
788.777	23.9901
791.67	45.0519
794.563	0.214417
797.455	22.0876
800.348	6.53455
803.241	27.4588
806.134	33.8357
809.026	27.0205
811.919	22.3403
814.812	32.5655
817.704	33.8643
820.597	18.9077
823.49	19.0958
826.382	27.5849
829.275	15.4104
832.168	14.8008
835.061	28.3452
837.953	12.131
840.846	5.67001
843.739	30.3495
846.631	15.7996
849.524	23.6462
852.417	11.6457
855.309	23.2381
858.202	39.1333
861.095	30.5545
863.987	47.9149
866.88	17.018
869.773	3.58487
872.666	8.01218
875.558	7.00299
878.451	12.9915
881.344	24.8184
884.236	2.95035
887.129	23.6836
890.022	47.5515
892.915	18.5389
895.807	43.0974
898.7	10.7972
901.593	17.2819
904.485	1.40155
907.378	0.562897
910.271	38.8187
913.163	12.0145
916.056	33.3535
918.949	36.4935
921.842	4.52032
924.734	56.0133
927.627	23.5662
930.52	62.0051
933.412	53.2024
936.305	49.1019
939.198	37.1547
942.091	37.1028
944.983	81.4692
947.876	110.962
950.769	87.2039
953.661	122.953
956.554	147.664
959.447	205.371
962.339	216.623
965.232	243.264
968.125	242.289
971.018	265.804
973.91	211.061
976.803	180.624
979.696	150.847
982.588	146.751
985.481	97.3742
988.374	129.03
991.266	98.1624
994.159	79.6643
997.052	104.816
999.944	113.441
1002.84	76.3679
1005.73	57.0232
1008.62	48.9911
1011.51	23.756
1014.41	47.1227
1017.3	13.3092
1020.19	16.2773
1023.09	16.274
1025.98	17.5385
1028.87	19.2184
1031.76	15.1979
1034.66	29.9647
1037.55	19.9266
1040.44	28.668
1043.34	12.032
1046.23	28.0643
1049.12	38.557
1052.01	45.0462
1054.91	63.7107
1057.8	13.2026
1060.69	4.93338
1063.58	19.7505
1066.48	46.3769
1069.37	45.909
1072.26	30.9404
1075.15	45.6481
1078.05	105.162
1080.94	86.1309
1083.83	40.3105
1086.73	31.8804
1089.62	44.2595
1092.51	44.0727
1095.4	63.8156
1098.3	7.53775
1101.19	46.322
1104.08	50.4168
1106.97	50.9828
1109.87	71.3504
1112.76	41.9792
1115.65	38.7443
1118.55	16.7302
1121.44	3.95306
1124.33	13.6089
1127.22	27.603
1130.12	51.8809
1133.01	2.81671
1135.9	3.01623
1138.79	25.6717
1141.69	29.1304
1144.58	28.731
1147.47	5.10144
1150.37	42.5739
1153.26	26.9411
1156.15	8.11542
1159.04	13.5989
1161.94	15.9323
1164.83	5.92212
1167.72	29.9505
1170.61	0.034882
1173.51	25.6518
1176.4	25.9062
1179.29	21.3525
1182.18	27.796
1185.08	30.1114
1187.97	5.02939
1190.86	1.47546
1193.76	10.3821
1196.65	26.2417
1199.54	32.9408
1202.43	33.7989
1205.33	15.607
1208.22	19.06
1211.11	28.53
1214	26.8173
1216.9	10.9156
1219.79	5.40866
1222.68	6.67102
1225.58	25.6027
1228.47	7.90655
1231.36	26.8754
1234.25	24.8121
1237.15	7.58563
1240.04	39.2266
1242.93	22.8463
1245.82	29.007
1248.72	14.7342
1251.61	37.3582
1254.5	17.4775
1257.39	47.201
1260.29	20.6422
1263.18	39.8652
