Measurement: Raman, 532 nm, unoriented, Raman Data Processed
Mineral: Klyuchevskite
Rruff sample: R070659
Ideal chemistry: K_3_Cu^2+^_3_Fe^3+^O_2_(S^6+^O_4_)_4_
Locality: Yadevitaya fumarole, Tolbachik volcano, Kamchatka Oblast', Far-Eastern Region, Russia
Source: Michael Scott
Description: Clusters of dark green radiating prismatic crystals associated with langbeinite, co-type sample
Raman shift (cm-1)	intensity
125.557	0
128.932	10.5969
132.307	134.764
135.682	17.7338
139.057	137.18
142.431	175.097
145.806	149.074
149.181	53.9853
152.556	39.8705
155.931	87.8414
159.306	2.86066
162.68	125.286
166.055	0.270264
169.43	5.11511
172.805	170.28
176.18	126.336
179.554	200.654
182.929	164.485
186.304	176.83
189.679	223.871
193.054	142.604
196.429	212.269
199.803	331.485
203.178	427.573
206.553	575.947
209.928	650.698
213.303	706.568
216.677	907.756
220.052	1014.96
223.427	979.955
226.802	787.148
230.177	642.243
233.552	453.776
236.926	396.019
240.301	187.588
243.676	208.633
247.051	75.8838
250.426	118.099
253.8	120.005
257.175	92.4871
260.55	80.6336
263.925	53.4028
267.3	18.2827
270.675	86.65
274.049	51.1216
277.424	26.0518
280.799	19.8304
284.174	42.4272
287.549	105.371
290.923	105.911
294.298	59.2283
297.673	44.7555
301.048	11.5945
304.423	22.9509
307.798	136.284
311.172	26.05
314.547	84.3997
317.922	28.055
321.297	61.8051
324.671	109.865
328.046	74.5729
331.421	119.013
334.796	86.6732
338.171	43.6199
341.546	82.9797
344.92	25.9633
348.295	72.5097
351.67	7.05304
355.045	27.9232
358.42	27.5517
361.795	28.1543
365.169	15.3723
368.544	64.2216
371.919	48.2918
375.294	16.9806
378.669	35.1559
382.043	26.979
385.418	4.2261
388.793	55.7349
392.168	5.09824
395.543	106.192
398.918	132.582
402.292	165.511
405.667	175.12
409.042	254.127
412.417	272.726
415.792	170.736
419.166	167.95
422.541	122.294
425.916	196.858
429.291	92.2457
432.666	91.591
436.041	59.1628
439.415	72.8885
442.79	47.4124
446.165	63.2509
449.54	56.9519
452.915	27.1321
456.289	20.8555
459.664	121.134
463.039	71.6901
466.414	111.182
469.789	89.2763
473.163	141.876
476.538	75.4683
479.913	80.7456
483.288	37.2812
486.663	34.1707
490.038	59.8132
493.412	54.2428
496.787	17.4275
500.162	24.035
503.537	96.1554
506.912	17.9223
510.286	11.8783
513.661	76.2423
517.036	30.2772
520.411	28.8949
523.786	24.7355
527.16	27.6176
530.535	77.4731
533.91	5.4342
537.285	4.22028
540.66	23.2411
544.034	71.5545
547.409	67.2497
550.784	41.6761
554.159	30.1019
557.534	39.1424
560.909	55.6499
564.283	26.1354
567.658	81.6837
571.033	0.002136
574.408	33.6799
577.783	28.0845
581.158	88.379
584.532	62.1059
587.907	82.3916
591.282	73.8497
594.657	62.243
598.032	70.955
601.406	99.5309
604.781	92.5815
608.156	46.586
611.531	63.3871
614.906	70.1813
618.28	0.803375
621.655	28.356
625.03	54.1149
628.405	39.7445
631.78	35.4536
635.155	52.2369
638.529	47.7002
641.904	53.5956
645.279	73.6854
648.654	108.258
652.029	165.753
655.404	135.868
658.778	35.2878
662.153	8.7308
665.528	76.5512
668.903	47.3654
672.278	91.5043
675.652	9.14682
679.027	17.4296
682.402	27.0085
685.777	40.5702
689.152	28.9946
692.526	17.3377
695.901	52.0762
699.276	42.5618
702.651	31.7813
706.026	36.3885
709.4	59.3118
712.775	46.4907
716.15	28.1318
719.525	34.5013
722.9	5.57895
726.275	12.1125
729.649	34.7918
733.024	64.861
736.399	66.198
739.774	45.4285
743.149	56.1196
746.524	9.4118
749.898	30.9751
753.273	49.7657
756.648	62.9756
760.023	19.845
763.398	45.6673
766.772	39.7774
770.147	43.7959
773.522	23.5267
776.897	34.6557
780.272	20.8423
783.646	41.8128
787.021	49.8919
790.396	54.9483
793.771	68.6549
797.146	37.942
800.521	60.5645
803.895	54.8216
807.27	7.5538
810.645	86.5727
814.02	21.2375
817.395	0.251602
820.769	50.4264
824.144	54.8753
827.519	22.333
830.894	86.1561
834.269	22.9003
837.644	91.3826
841.018	52.8776
844.393	94.6491
847.768	12.6256
851.143	105.028
854.518	62.0867
857.892	33.0138
861.267	95.651
864.642	42.2135
868.017	53.4997
871.392	17.5978
874.766	37.5427
878.141	62.2625
881.516	24.9881
884.891	88.138
888.266	25.9825
891.641	50.8079
895.015	49.458
898.39	34.4024
901.765	56.0161
905.14	23.6256
908.515	19.458
911.889	56.7852
915.264	16.8555
918.639	9.12477
922.014	24.5024
925.389	35.0537
928.764	16.2638
932.138	5.66655
935.513	12.031
938.888	10.0391
942.263	29.1439
945.638	15.4721
949.013	65.1106
952.387	5.3273
955.762	94.5442
959.137	102.299
962.512	96.4125
965.886	154.423
969.261	168.794
972.636	235.64
976.011	215.411
979.386	188.254
982.761	221.562
986.135	226.634
989.51	243.677
992.885	252.259
996.26	212.996
999.635	152.644
1003.01	108.391
1006.38	114.403
1009.76	121.481
1013.13	103.119
1016.51	135.608
1019.88	165.932
1023.26	49.3702
1026.63	42.3292
1030.01	57.898
1033.38	55.919
1036.76	86.1264
1040.13	69.429
1043.51	119.379
1046.88	116.479
1050.26	44.4012
1053.63	111.715
1057.01	100.411
1060.38	148.141
1063.76	199.783
1067.13	234.143
1070.51	242.07
1073.88	212.769
1077.26	169.946
1080.63	4.82684
1084.01	25.9777
1087.38	20.6926
1090.76	72.8793
1094.13	38.297
1097.5	50.5998
1100.88	37.0391
1104.25	21.195
1107.63	16.6563
1111	4.97876
1114.38	59.6014
1117.75	73.8924
1121.13	1.68716
1124.5	58.2067
1127.88	45.8998
1131.25	60.2406
1134.63	53.3156
1138	40.1665
1141.38	123.136
1144.75	89.7407
1148.13	16.25
1151.5	56.0752
1154.88	74.7954
1158.25	66.3457
1161.63	60.763
1165	45.3619
1168.38	27.0791
1171.75	36.6163
1175.12	24.0684
1178.5	64.8023
1181.88	0.524292
1185.25	22.4915
1188.62	23.8902
1192	16.7574
1195.37	32.9031
1198.75	24.4766
1202.12	29.122
1205.5	14.3094
1208.87	32.7224
1212.25	38.1828
1215.62	64.835
1219	65.4569
1222.37	66.2148
1225.75	127.419
1229.12	60.691
1232.5	97.2786
1235.87	121.827
1239.25	150.955
1242.62	161.721
1246	129.338
1249.37	108.747
1252.75	130.985
1256.12	125.637
1259.49	77.4068
1262.87	38.5308
1266.24	25.542
1269.62	47.8622
1272.99	112.46
1276.37	67.0051
1279.74	100.388
1283.12	59.8534
1286.49	0.01918
1289.87	43.2159
1293.24	60.5068
1296.62	38.9857
1299.99	72.7151
1303.37	14.0759
