Measurement: Raman, 780 nm, unoriented, Raman Data Processed
Mineral: Kobyashevite
Rruff sample: R160001
Ideal chemistry: Cu^2+^_5_(S^6+^O_4_)_2_(OH)_6_4H_2_O
Locality: Ojuela mine (Cumbres lugar), Mapim√≠, Durango, Mexico
Source: Eugene Schlepp
Description: Turquoise colored short-bladed or tabular crystals associated with gypsum microcrystals coating calcite and hemimorphite
Raman shift (cm-1)	intensity
99.7559	0
103.131	0.80584
106.505	1.86151
109.88	1.0664
113.255	0.966553
116.63	2.16835
120.005	1.90783
123.38	1.52486
126.754	0.514389
130.129	1.29092
133.504	2.38284
136.879	1.76378
140.254	1.44445
143.629	0.650084
147.003	1.10813
150.378	0.06539
153.753	0.221188
157.128	0.131062
160.503	0.007126
163.877	0.35413
167.252	0.682507
170.627	1.38394
174.002	1.99947
177.377	1.63439
180.751	1.77411
184.126	1.8397
187.501	2.39198
190.876	1.16114
194.251	2.31018
197.625	2.87702
201	2.72335
204.375	3.51436
207.75	3.4241
211.125	3.93171
214.5	3.58554
217.874	3.66466
221.249	3.94699
224.624	2.50142
227.999	2.82698
231.374	3.26214
234.749	2.89892
238.123	2.02001
241.498	2.78689
244.873	2.55916
248.248	0.81213
251.623	0.864086
254.997	0.577094
258.372	0.830942
261.747	1.39384
265.122	2.1474
268.497	2.18828
271.872	0.927814
275.246	0.81697
278.621	0.772284
281.996	0.794154
285.371	1.27822
288.745	1.25617
292.12	0.309276
295.495	0.294578
298.87	0.538656
302.245	0.466949
305.62	0.65063
308.994	0.45463
312.369	1.12878
315.744	0.742752
319.119	0.151302
322.494	0.314982
325.868	0.652532
329.243	1.83869
332.618	1.25531
335.993	0.696937
339.368	0.958727
342.743	0.389282
346.117	0.068601
349.492	1.06385
352.867	1.6176
356.242	0.713826
359.617	0.628213
362.991	0.885795
366.366	0.729273
369.741	0.258018
373.116	0.904073
376.491	0.69439
379.865	0.046268
383.24	0.383248
386.615	0.830343
389.99	0.090131
393.365	0.241057
396.74	1.28785
400.114	2.09116
403.489	1.80566
406.864	1.87801
410.239	2.37349
413.614	1.93392
416.988	0.814147
420.363	1.92907
423.738	1.43735
427.113	2.41802
430.488	2.5481
433.863	3.54512
437.237	3.90636
440.612	4.13501
443.987	3.13479
447.362	2.36374
450.737	2.90812
454.111	2.62377
457.486	2.826
460.861	2.36316
464.236	1.52009
467.611	1.58667
470.986	1.73891
474.36	0.249604
477.735	1.07157
481.11	0.925781
484.485	0.399949
487.86	0.506321
491.234	1.1843
494.609	2.14631
497.984	1.39737
501.359	0.21015
504.734	0.443312
508.108	0.129305
511.483	0.814655
514.858	0.809752
518.233	0.514163
521.608	0.881586
524.982	0.959901
528.357	0.708282
531.732	0.534273
535.107	1.01388
538.482	0.009887
541.857	0.435308
545.231	0.804263
548.606	0.919867
551.981	0.741352
555.356	1.33448
558.731	0.848649
562.106	0.046994
565.48	0.609396
568.855	0.102047
572.23	1.10943
575.605	1.36276
578.98	0.071187
582.354	0.367575
585.729	1.26623
589.104	0.807169
592.479	1.34739
595.854	1.09903
599.229	1.4734
602.603	2.63565
605.978	1.76934
609.353	1.58298
612.728	1.42841
616.102	2.57257
619.477	0.731347
622.852	1.59841
626.227	0.811034
629.602	0.891914
632.977	0.683884
636.351	0.633518
639.726	1.39185
643.101	1.00405
646.476	1.26547
649.851	1.37705
653.226	1.04266
656.6	1.32388
659.975	1.07902
663.35	0.244884
666.725	0.547591
670.1	1.16282
673.474	0.916931
676.849	1.08217
680.224	1.68377
683.599	0.270978
686.974	0.187986
690.348	0.294764
693.723	1.07998
697.098	0.248317
700.473	0.228843
703.848	0.773189
707.222	0.532172
710.597	0.707127
713.972	0.86785
717.347	1.04651
720.722	0.364777
724.097	1.33696
727.471	0.290037
730.846	0.053614
734.221	0.24568
737.596	0.904255
740.971	0.673819
744.346	0.729322
747.72	0.846719
751.095	0.258403
754.47	0.507442
757.845	1.41843
761.22	0.247515
764.594	0.877951
767.969	0.898438
771.344	1.34626
774.719	0.623
778.094	0.49985
781.468	0.072944
784.843	0.645767
788.218	1.04503
791.593	0.354242
794.968	1.0044
798.342	0.556195
801.717	1.10637
805.092	0.772868
808.467	0.583845
811.842	0.242003
815.217	0.365297
818.591	0.223215
821.966	0.786977
825.341	0.966027
828.716	0.045503
832.091	0.586732
835.466	0.486477
838.84	0.252683
842.215	1.01702
845.59	1.30902
848.965	0.767326
852.34	0.123754
855.714	1.12187
859.089	0.703775
862.464	0.787095
865.839	1.05155
869.214	0.903281
872.588	0.465404
875.963	0.664279
879.338	0.454907
882.713	0.89097
886.088	0.580041
889.462	0.986012
892.837	1.35019
896.212	0.303195
899.587	1.18097
902.962	0.866415
906.337	0.307598
909.711	0.320455
913.086	0.159932
916.461	1.00038
919.836	0.570222
923.211	0.627278
926.585	0.724979
929.96	0.006062
933.335	0.3485
936.71	0.716162
940.085	1.13712
943.46	1.17225
946.834	1.39561
950.209	0.81499
953.584	0.755997
956.959	1.31862
960.334	1.33296
963.708	1.18694
967.083	2.53498
970.458	4.54442
973.833	6.30107
977.208	9.69328
980.582	14.3784
983.957	18.5041
987.332	7.71795
990.707	2.59279
994.082	1.56439
997.457	0.869322
1000.83	0.082485
1004.21	0.308249
1007.58	0.663721
1010.96	0.553876
1014.33	0.578503
1017.71	0.666934
1021.08	0.610934
1024.45	0.322087
1027.83	0.071642
1031.2	0.134762
1034.58	0.007263
1037.95	0.751762
1041.33	0.443691
1044.7	0.141283
1048.08	0.411394
1051.45	0.859865
1054.83	1.20569
1058.2	0.2388
1061.58	1.23476
1064.95	0.137736
1068.33	0.876161
1071.7	1.39112
1075.08	0.815418
1078.45	0.709707
1081.83	1.08173
1085.2	0.837624
1088.58	1.25685
1091.95	0.821486
1095.33	1.06942
1098.7	1.54824
1102.08	1.46921
1105.45	1.5512
1108.83	3.02626
1112.2	2.54967
1115.58	2.59908
1118.95	2.22555
1122.33	1.35142
1125.7	1.30722
1129.07	1.93176
1132.45	0.678918
1135.82	0.711225
1139.2	0.099247
1142.57	0.048211
1145.95	1.01096
1149.32	0.417197
1152.7	1.09333
1156.07	0.565341
1159.45	1.08099
1162.82	0.236685
1166.2	0.076473
1169.57	0.475247
1172.95	1.22376
1176.32	1.28728
1179.7	1.15028
1183.07	0.816772
1186.45	0.496175
1189.82	0.262685
1193.2	1.05668
1196.57	0.703067
1199.94	0.533199
1203.32	0.285354
1206.69	0.675485
1210.07	0.475111
1213.44	1.05092
1216.82	0.982684
1220.19	1.39367
1223.57	0.741796
1226.94	0.608183
1230.32	0.942291
1233.69	0.780542
1237.07	0.349727
1240.44	1.07241
1243.82	0.571253
1247.19	0.979617
1250.57	2.37187
1253.94	1.64877
1257.32	1.48142
1260.69	0.31453
1264.07	1.04396
1267.44	0.06812
1270.82	0.938705
1274.19	1.29457
1277.57	0.092596
1280.94	0.710172
1284.32	0.060617
