Measurement: Raman, 532 nm, unoriented, Raman Data Processed
Mineral: Koenenite
Rruff sample: R060989
Ideal chemistry: Na_4_Mg_9_Al_4_Cl_12_(OH)_22_
Locality: Grauer Salzton, Bergmannssegen Quarry, Lehrte, near Hannover, Germany
Source: Michael Scott
Description: Aggregate of orange tabular crystals showing a micaceous cleavage.
Raman shift (cm-1)	intensity
175.52	0
178.413	18.6919
181.305	68.668
184.198	110.567
187.091	75.1006
189.983	221.096
192.876	321.145
195.769	469.277
198.662	459.873
201.554	401.663
204.447	366.774
207.34	305.987
210.232	271.275
213.125	194.71
216.018	90.1938
218.911	82.2974
221.803	19.1475
224.696	91.4014
227.589	26.8726
230.481	5.22168
233.374	116.432
236.267	40.6724
239.159	5.32373
242.052	20.3081
244.945	62.7383
247.838	73.7466
250.73	59.709
253.623	81.7993
256.516	3.99853
259.408	36.1665
262.301	31.9644
265.194	8.06494
268.086	72.2964
270.979	6.6543
273.872	22.3887
276.764	35.8633
279.657	34.3897
282.55	103.043
285.442	50.3657
288.335	79.5874
291.228	140.173
294.121	166.636
297.013	268.594
299.906	259.661
302.799	238.43
305.691	217.81
308.584	121.001
311.477	96.7022
314.37	104.845
317.262	46.1807
320.155	76.2148
323.048	108.181
325.94	76.0659
328.833	111.384
331.726	101.725
334.618	46.8667
337.511	10.8687
340.404	23.3145
343.296	41.9468
346.189	16.8838
349.082	4.13721
351.975	12.8281
354.867	42.6958
357.76	78.5225
360.653	122.569
363.545	188.732
366.438	157.784
369.331	127.062
372.224	57.3101
375.116	112.137
378.009	69.0884
380.902	211.318
383.794	223.576
386.687	347.664
389.58	380.291
392.472	425.542
395.365	285.373
398.258	136.774
401.151	115.663
404.043	72.041
406.936	88.7959
409.829	60.8872
412.721	48.4136
415.614	67.1665
418.507	73.1279
421.399	7.26611
424.292	4.55273
427.185	65.3037
430.077	49.0352
432.97	21.4502
435.863	26.8066
438.755	84.3154
441.648	116.504
444.541	79.6782
447.434	193.976
450.326	158.495
453.219	96.6235
456.112	130.488
459.004	136.752
461.897	122.894
464.79	141.156
467.683	189.203
470.575	199.558
473.468	185.603
476.361	154.932
479.253	74.8872
482.146	175.527
485.039	163.441
487.931	195.493
490.824	138.468
493.717	68.9385
496.61	35.5747
499.502	0.612793
502.395	21.6494
505.288	50.5474
508.18	14.7676
511.073	11.8521
513.966	0.532715
516.858	100.802
519.751	47.6582
522.644	82.5225
525.536	77.7891
528.429	134.373
531.322	177.614
534.215	214.088
537.107	341.8
540	612.517
542.893	965.207
545.785	1545.63
548.678	2116.08
551.571	2664.29
554.463	2917.21
557.356	2381.22
560.249	1480.99
563.141	937.721
566.034	560.796
568.927	411.022
571.82	276.791
574.712	206.812
577.605	74.8457
580.498	35.8535
583.39	2.49805
586.283	13.707
589.176	8.11523
592.068	2.78125
594.961	30.2129
597.854	17.1318
600.747	105.672
603.639	155.246
606.532	190.148
609.425	232.248
612.317	356.553
615.21	414.115
618.103	425.623
620.995	581.109
623.888	598.101
626.781	668.246
629.673	589.72
632.566	492.242
635.459	512.988
638.352	483.974
641.244	430.671
644.137	394.44
647.03	373.747
649.922	304.986
652.815	324.303
655.708	295.246
658.601	332.027
661.493	247.378
664.386	215.265
667.279	224.608
670.171	203.996
673.064	158.39
675.957	105.293
678.849	61.9531
681.742	80.6406
684.635	110.68
687.528	28.667
690.42	135.535
693.313	68.3867
696.206	34.2676
699.098	62.0117
701.991	53.6787
704.884	19.1289
707.776	4.55273
710.669	6.60449
713.562	60.3115
716.455	3.41894
719.347	18.5303
722.24	110.879
725.133	83.125
728.025	44.706
730.918	64.6689
733.811	18.0381
736.703	48.0566
739.596	23.2295
742.489	1.13184
745.381	43.9395
748.274	100.292
751.167	85.8389
754.059	12.7754
756.952	201.49
759.845	14.2178
762.738	150.126
765.63	96.6885
768.523	178.22
771.416	128.658
774.308	114.831
777.201	109.702
780.094	155.04
782.986	154.898
785.879	185.086
788.772	254.439
791.665	254.123
794.557	324.316
797.45	331.587
800.343	328.615
803.235	316.394
806.128	414.481
809.021	475.467
811.913	408.673
814.806	530.85
817.699	577.14
820.592	485.653
823.484	485.089
826.377	575.154
829.27	662.336
832.162	542.93
835.055	501.331
837.948	438.962
840.841	460.258
843.733	434.804
846.626	390.389
849.519	280.005
852.411	248.398
855.304	75.6269
858.197	58.3008
861.089	115.336
863.982	38.0576
866.875	61.04
869.767	7.28906
872.66	35.5225
875.553	104.241
878.446	33.3818
881.338	85.5889
884.231	143.894
887.124	26.9795
890.016	70.7295
892.909	125.925
895.802	176.35
898.694	196.572
901.587	17.2139
904.48	45.8135
907.372	56.3984
910.265	27.1592
913.158	69.7266
916.051	25.9814
918.943	15.1045
921.836	87.5723
924.729	181.193
927.621	222.487
930.514	84.2031
933.407	185.078
936.299	82.4746
939.192	127.156
942.085	85.4102
944.977	147.883
947.87	123.887
950.763	161.461
953.656	170.873
956.548	122.217
959.441	221.777
962.334	152.375
965.226	176.812
968.119	160.023
971.012	5.22852
973.904	83.5371
976.797	173.744
979.69	133.982
982.583	165.039
985.475	55.1523
988.368	55.9961
991.261	71.8731
994.153	74.541
997.046	150.191
999.939	45.8867
1002.83	63.8164
1005.72	136.258
1008.62	146.719
1011.51	103.939
1014.4	138.935
1017.29	128.953
1020.19	105.582
1023.08	86.4277
1025.97	209.859
1028.87	209.338
1031.76	130.732
1034.65	135.353
1037.54	180.57
1040.44	167.68
1043.33	90.168
1046.22	21.2949
1049.12	47.1465
1052.01	82.125
1054.9	94.6562
1057.79	190.676
1060.68	187.734
1063.58	66.6836
1066.47	52.1914
1069.36	100.144
1072.26	121.635
1075.15	68.6699
1078.04	9.44922
1080.93	5.01953
1083.83	18.3926
1086.72	53.8906
1089.61	45.2285
1092.51	91.3711
1095.4	182.518
1098.29	167.348
1101.18	150.904
1104.08	173.06
1106.97	99.1953
1109.86	157.115
1112.75	64.5684
1115.65	77.9023
1118.54	128.631
1121.43	14.043
1124.33	75.6035
1127.22	109.057
1130.11	181.812
1133	236.221
1135.9	185.115
1138.79	212.051
1141.68	204.731
1144.57	125.332
1147.47	27.2227
1150.36	96.4258
1153.25	76.8594
1156.14	131.115
1159.04	103.859
1161.93	151.025
1164.82	79.7949
1167.71	29.3828
1170.61	3.85938
1173.5	149.432
1176.39	169.81
1179.29	190.045
1182.18	268.518
1185.07	223.606
1187.96	152.846
1190.86	135.859
1193.75	104.684
1196.64	120.891
1199.54	9.08789
1202.43	134.373
1205.32	55.002
1208.21	140.9
1211.11	208.516
1214	239.766
1216.89	158.873
1219.78	197.445
1222.68	111.76
1225.57	143.141
1228.46	134.627
1231.36	157.072
1234.25	126.432
1237.14	251.428
1240.03	257.289
1242.92	186.998
1245.82	218.441
1248.71	246.348
1251.6	243.922
1254.5	12.8594
1257.39	135.865
1260.28	197.828
1263.17	92.2266
1266.07	36.3281
1268.96	187.805
1271.85	232.959
1274.74	341.252
1277.64	204.566
1280.53	193.084
1283.42	205.178
1286.32	109.666
1289.21	165.523
1292.1	60.5703
1294.99	77.4414
1297.89	95.1289
1300.78	0
