Measurement: Raman, 780 nm, unoriented, Raman Data Processed
Mineral: Koritnigite
Rruff sample: R060654
Ideal chemistry: Zn^2+^(As^5+^O_3_OH)H_2_O
Locality: Jachymov, Czech Republic
Source: Michael Scott
Description: Reddish-pink spherical aggregates
Measured chemistry: (Zn_0.83_Co_0.13_Ni_0.03_Fe_0.01_)_Σ=1_(As_1.00_O_3_OH)·H_2_O ; OH estimated by stoichiometry and charge balance
Raman shift (cm-1)	intensity
96.8632	0
100.238	37.7676
103.613	15.625
106.988	67.8496
110.362	175.387
113.737	163.644
117.112	142.352
120.487	122.248
123.862	89.5371
127.237	78.459
130.611	91.0312
133.986	121.967
137.361	138.381
140.736	216.043
144.111	225.414
147.485	203.289
150.86	198.902
154.235	274.084
157.61	324.393
160.985	416.377
164.359	545.285
167.734	633.074
171.109	684.568
174.484	620.74
177.859	450.676
181.234	275.346
184.608	227.359
187.983	188.307
191.358	147.738
194.733	97.5996
198.108	99.5156
201.482	81
204.857	68.0566
208.232	107.08
211.607	90.916
214.982	126.361
218.357	129.07
221.731	138.115
225.106	182.182
228.481	197.836
231.856	230.617
235.231	287.996
238.605	313.238
241.98	243.022
245.355	199.725
248.73	174.373
252.105	99.5488
255.48	30.543
258.854	31.6699
262.229	4.7793
265.604	21.7051
268.979	52.2051
272.354	2.83398
275.728	23.7695
279.103	10.7832
282.478	36.6875
285.853	1.42773
289.228	30.2227
292.602	23.1777
295.977	5.44727
299.352	41.3965
302.727	41.123
306.102	38.3711
309.476	82.293
312.851	79.8965
316.226	147.457
319.601	137.617
322.976	192.41
326.351	248.156
329.725	285.15
333.1	265.789
336.475	223.717
339.85	184.807
343.225	169.258
346.599	100.125
349.974	51.5
353.349	12.3672
356.724	68.0488
360.099	85.0547
363.474	133.713
366.848	130.988
370.223	189.721
373.598	191.346
376.973	189.24
380.348	139.217
383.722	120.379
387.097	112.369
390.472	119.877
393.847	141.664
397.222	148.141
400.596	98.7871
403.971	14
407.346	2.1543
410.721	7.61133
414.096	4.875
417.471	5.93945
420.845	86.9434
424.22	88.3965
427.595	129.365
430.97	154.666
434.345	115.356
437.719	90.0996
441.094	117.543
444.469	119.012
447.844	146.262
451.219	226.238
454.594	230.18
457.968	281.447
461.343	305.32
464.718	279.867
468.093	299.609
471.468	276.596
474.842	221.728
478.217	204.986
481.592	200.342
484.967	165.672
488.342	157.353
491.716	134.236
495.091	104.996
498.466	57.9238
501.841	47.2227
505.216	25.2285
508.591	52.7988
511.965	45.5938
515.34	46.4727
518.715	13.0469
522.09	7.42383
525.465	10.1953
528.84	5.91211
532.214	6.30469
535.589	9.47656
538.964	6.1875
542.339	3.65039
545.713	3.42578
549.088	14.9434
552.463	2.13086
555.838	2.875
559.213	38.3789
562.588	13.4297
565.962	27.6113
569.337	33.8984
572.712	31.1855
576.087	72.2695
579.462	70.4297
582.837	28.6426
586.211	33.6328
589.586	24.1172
592.961	37.2266
596.336	57.8691
599.711	66.2988
603.085	69.3477
606.46	57.4727
609.835	46.2129
613.21	54.9062
616.585	29.082
619.96	46.5117
623.334	49.9414
626.709	46.8008
630.084	34.0195
633.459	39.3789
636.833	59.6113
640.208	54.2441
643.583	26.5
646.958	16.6641
650.333	6.62891
653.708	3.95117
657.082	30.7461
660.457	34.3711
663.832	36.418
667.207	44.1055
670.582	37.8906
673.957	33.7285
677.331	49.3418
680.706	41.1855
684.081	23.6035
687.456	59.6562
690.831	41.502
694.205	63.5156
697.58	44.1426
700.955	36.9199
704.33	46.8711
707.705	36.4844
711.079	41.8906
714.454	56.875
717.829	29.4072
721.204	15.6758
724.579	6.78223
727.953	2.0166
731.328	7.19824
734.703	34.626
738.078	18.3174
741.453	18.2197
744.828	5.33496
748.202	24.0156
751.577	5.59668
754.952	40.6094
758.327	36.8848
761.702	9.87402
765.077	1.61523
768.451	6.03027
771.826	40.3408
775.201	2.11133
778.576	16.9902
781.951	22.5801
785.325	0.774414
788.7	55.4658
792.075	91.8926
795.45	195.735
798.825	326.647
802.199	454.019
805.574	642.517
808.949	800.24
812.324	885.557
815.699	925.795
819.073	834.332
822.448	713.125
825.823	629.098
829.198	597.289
832.573	605.556
835.948	644.583
839.322	678.781
842.697	679.048
846.072	681.58
849.447	612.621
852.822	536.447
856.197	489.389
859.571	444.612
862.946	452.475
866.321	434.549
869.696	457.668
873.071	472.185
876.445	485.091
879.82	478.454
883.195	498.465
886.57	502.911
889.945	477.051
893.319	472.778
896.694	396.775
900.069	313.403
903.444	233.141
906.819	169.183
910.193	114.399
913.568	63.8633
916.943	14.9609
920.318	38.3008
923.693	22.3027
927.068	0.509766
930.442	15.9795
933.817	5.6875
937.192	6.03125
940.567	2.98438
943.942	2.55566
947.317	2.54004
950.691	2.36035
954.066	3.30469
957.441	25.7051
960.816	19.5312
964.191	25.4551
967.565	17.0029
970.94	48.3945
974.315	13.831
977.69	11.6768
981.065	36.7188
984.439	52.1035
987.814	40.3193
991.189	56.5859
994.564	57.5225
997.939	60.8887
1001.31	72.8154
1004.69	71.2217
1008.06	70.4492
1011.44	36.1904
1014.81	41.585
1018.19	49.1904
1021.56	27.6953
1024.94	45.9678
1028.31	19.9219
1031.69	52.1572
1035.06	51.8154
1038.44	46.543
1041.81	40.9092
1045.19	31.709
1048.56	43.874
1051.94	28.4678
1055.31	36.4648
1058.68	45.2734
1062.06	58.5938
1065.43	59.2598
1068.81	31.6963
1072.18	34.416
1075.56	32.1426
1078.93	9.55664
1082.31	14.7588
1085.68	34.7031
1089.06	48.9121
1092.43	14.4902
1095.81	2.24512
1099.18	3.40723
1102.56	6.27246
1105.93	16.96
1109.31	16.6396
1112.68	14.3906
1116.06	3.22363
1119.43	3.01758
1122.81	5.82812
1126.18	3.46973
1129.56	4.62988
1132.93	24.4004
1136.31	26.9736
1139.68	40.5185
1143.06	30.2227
1146.43	43.1514
1149.81	35.4883
1153.18	51.8291
1156.56	36.3848
1159.93	41.7969
1163.31	55.1123
1166.68	58.1357
1170.05	79.8525
1173.43	68.6719
1176.8	84.8008
1180.18	82.9883
1183.55	83.6357
1186.93	63.2871
1190.3	70.6006
1193.68	69.6123
1197.05	87.1455
1200.43	83.3779
1203.8	57.1397
1207.18	66.7939
1210.55	53.8018
1213.93	40.8281
1217.3	31.0098
1220.68	0.834961
1224.05	3.62012
1227.43	38.0117
1230.8	26.7383
1234.18	27.2959
1237.55	6.81543
1240.92	8.29004
1244.3	4.49609
1247.67	1.58106
1251.05	27.0586
1254.42	21.4717
1257.8	32.7998
1261.17	12.3115
1264.55	37.5557
1267.92	27.8711
1271.3	15.3301
1274.67	3.58887
1278.05	18.1689
1281.42	18.2207
1284.8	0
