Measurement: Raman, 514 nm, unoriented, Raman Data Processed
Mineral: Kornerupine
Rruff sample: R050214
Ideal chemistry: (Mg,Fe^2+^,Al,[box])_10_(Si,Al,B)_5_O_21_(OH,F)_2_
Locality: Sri Lanka
Source: Jibamitra Ganguly
Description: Water-worn single crystal fragment
Measured chemistry: (Mg_3.63_[box]_0.21_Fe^2+^_0.14_Na_0.02_)_4_Al_6.00_(Si_2.44_Al_1.97_B_0.59_)_5_O_21_(OH) ;   B and Li not measured; B estimated by charge balance
Raman shift (cm-1)	intensity
122.592	0
126.758	30.491
130.922	230.53
135.083	85.798
139.243	400.843
143.401	291.854
147.557	274.711
151.711	179.236
155.863	248.711
160.013	591.533
164.161	858.465
168.308	1008.19
172.452	1427.41
176.594	1599.36
180.734	2087.69
184.872	2218.39
189.008	1994.57
193.143	2114.06
197.275	1706.39
201.405	1551.11
205.534	1648.77
209.66	1320.68
213.784	1352.76
217.907	1151.36
222.027	1182.69
226.146	1084.81
230.263	851.787
234.377	732.111
238.49	641.227
242.601	881.477
246.709	1326.06
250.816	1795.31
254.921	2575.78
259.024	2936.97
263.125	3189.56
267.224	3305.08
271.321	3125.47
275.416	2253.71
279.51	1667.77
283.601	1328.63
287.69	1784.17
291.778	2600.38
295.863	2764.02
299.947	2347.72
304.029	1805.36
308.108	1627.57
312.186	1625.07
316.262	2118.68
320.336	2662.22
324.408	3063.3
328.478	3144.83
332.546	2817.29
336.612	2193.64
340.677	1644.26
344.739	1381.04
348.799	874.797
352.858	1009.79
356.915	931.932
360.969	1319.96
365.022	1637.57
369.073	2064.32
373.122	2574.02
377.169	2954.13
381.215	3306.7
385.258	3184.64
389.299	3276.31
393.339	3374.11
397.376	3358.9
401.412	3143.16
405.446	2538.32
409.478	1897.3
413.508	1266.04
417.536	970.484
421.562	617.633
425.586	650.469
429.609	400.98
433.629	438.168
437.648	456.025
441.665	354.543
445.68	645.723
449.693	609.588
453.704	539.979
457.713	832.004
461.721	832.496
465.726	1091.79
469.73	1042.85
473.731	1305.66
477.731	993.191
481.729	854.428
485.725	810.352
489.72	501.941
493.712	147.186
497.703	103.969
501.691	97.996
505.678	143.941
509.663	139.225
513.646	148.23
517.627	40.482
521.607	153.752
525.584	239.127
529.56	230.068
533.534	215.645
537.506	180.205
541.476	127.301
545.444	45.221
549.41	86.396
553.375	54.273
557.337	110.465
561.298	408.117
565.257	601.307
569.214	782.039
573.17	728.318
577.123	973.143
581.075	1241.52
585.024	1193.44
588.972	1707.92
592.918	1456.97
596.863	2019.57
600.805	1933.74
604.746	2114.49
608.685	2011.81
612.621	1825.71
616.557	1505.2
620.49	1349.27
624.421	1007.92
628.351	890.174
632.279	826.02
636.205	949.459
640.129	966.525
644.051	840.195
647.972	1330.49
651.89	1169.29
655.807	1642.3
659.722	2080.17
663.636	1875.45
667.547	2037.74
671.457	2262.11
675.365	2412.75
679.271	2857.05
683.175	3633.27
687.077	4180.64
690.978	5658.71
694.877	7456.2
698.774	8959.48
702.669	9849.33
706.562	9195.52
710.454	6855.03
714.344	4107.41
718.232	2568.66
722.118	1579.81
726.002	991.855
729.885	1125.81
733.766	1396.67
737.645	2401.46
741.522	3621.21
745.397	4710.92
749.271	6012.6
753.143	5982.29
757.013	5204.99
760.881	3899.71
764.748	2630.47
768.613	1392.29
772.476	942.18
776.337	960.16
780.196	802.246
784.054	778.449
787.91	976.52
791.764	1198.28
795.616	1184.93
799.467	871.766
803.316	447.789
807.163	474.023
811.008	77.469
814.851	184.688
818.693	337.805
822.533	237.406
826.371	440.73
830.208	120.805
834.042	475.059
837.875	44.648
841.706	263.902
845.536	413.008
849.363	81.93
853.189	533.363
857.013	1437.33
860.836	1574.89
864.656	2589.05
868.475	3802.76
872.292	5226.95
876.108	5970.63
879.922	7156.82
883.733	6699.8
887.544	5544.48
891.352	4403.25
895.159	3285.52
898.964	2664
902.767	2128.23
906.568	1853.11
910.368	1847.72
914.166	1535
917.962	1577.93
921.757	1875.5
925.55	1993.83
929.341	2274
933.13	2525.8
936.918	2863.26
940.703	3636.5
944.488	4998.44
948.27	6385.07
952.051	8392.32
955.83	10500.8
959.607	12198
963.383	12807.2
967.156	12823.4
970.928	11758.8
974.699	10652.2
978.468	9322.98
982.234	8171.16
986	7483.07
989.763	7052.94
993.525	6913.03
997.285	6799.55
1001.04	7127.09
1004.8	6937.44
1008.55	7210.55
1012.31	7704.55
1016.06	7799.52
1019.81	7793.31
1023.56	7644.99
1027.31	7493
1031.05	7500.75
1034.79	7139.98
1038.53	6234.8
1042.27	5705.81
1046.01	5685.74
1049.75	5553.64
1053.48	5169.24
1057.22	5072.6
1060.95	4937.51
1064.68	4466.43
1068.4	4259.67
1072.13	3700.48
1075.86	3060.95
1079.58	2429.43
1083.3	2494.84
1087.02	1930.11
1090.74	1654.18
1094.45	1344.44
1098.17	1299.78
1101.88	1184.53
1105.59	1588.83
1109.3	1751.58
1113.01	2002.68
1116.71	1851.94
1120.42	2320.73
1124.12	2708.72
1127.82	2025.01
1131.52	1909.91
1135.22	1431.39
1138.91	1277.55
1142.61	962.059
1146.3	794.977
1149.99	523.5
1153.68	742.371
1157.37	323.754
1161.06	283.711
1164.74	275.43
1168.42	299.59
1172.1	346.793
1175.78	287.816
1179.46	62.074
1183.14	215.785
1186.81	43.367
1190.48	19.688
1194.15	160.238
1197.83	130.34
1201.49	119.258
1205.16	300.363
1208.82	67.852
1212.49	168.82
1216.15	22.734
1219.81	70.102
1223.46	221.258
1227.12	64.645
1230.78	181.23
1234.43	214.043
1238.08	232.59
1241.73	166.273
1245.38	347.113
1249.03	108.02
1252.67	366.09
1256.31	73.535
1259.95	253.09
1263.6	217.25
1267.23	138.973
1270.87	36.91
1274.51	134.246
1278.14	165.484
1281.77	97.133
1285.4	203.668
1289.03	424.051
1292.66	136.406
1296.28	85.848
1299.91	211.391
1303.53	117.426
1307.15	98.48
1310.77	628.445
1314.38	171.203
1318	512.246
1321.61	286.191
1325.23	53.367
1328.84	24.168
1332.45	256.367
1336.06	377.211
1339.66	415.906
1343.27	553.375
1346.87	822.746
1350.47	778.281
1354.07	798.23
1357.67	839.004
1361.26	1012.66
1364.86	986.031
1368.45	738.523
1372.04	999.426
1375.63	1014.93
1379.22	630.926
1382.81	590.586
1386.39	448.461
1389.98	346.891
1393.56	398.902
1397.14	584
1400.72	498.078
1404.3	348.719
1407.87	124.855
1411.45	203.699
1415.02	302.5
1418.59	184.086
1422.16	349.23
1425.73	190.215
1429.29	146.887
1432.86	42.043
1436.42	313.375
1439.98	198.562
1443.54	2.516
1447.1	0
