Measurement: Raman, 780 nm, unoriented, Raman Data Processed
Mineral: Kornerupine
Rruff sample: R050214
Ideal chemistry: (Mg,Fe^2+^,Al,[box])_10_(Si,Al,B)_5_O_21_(OH,F)_2_
Locality: Sri Lanka
Source: Jibamitra Ganguly
Description: Water-worn single crystal fragment
Measured chemistry: (Mg_3.63_[box]_0.21_Fe^2+^_0.14_Na_0.02_)_4_Al_6.00_(Si_2.44_Al_1.97_B_0.59_)_5_O_21_(OH) ;   B and Li not measured; B estimated by charge balance
Raman shift (cm-1)	intensity
145.869	0
148.761	3.55646
151.654	5.46057
154.547	7.28198
157.439	9.69458
160.332	12.5822
163.225	9.63855
166.117	2.73724
169.01	0.643005
171.903	1.18414
174.796	0.973694
177.688	2.93188
180.581	2.02374
183.474	5.95099
186.366	3.0144
189.259	3.27429
192.152	0.328552
195.044	2.99713
197.937	1.24768
200.83	4.28772
203.722	11.6572
206.615	17.8124
209.508	29.4506
212.401	41.1375
215.293	52.4912
218.186	61.1158
221.079	69.1559
223.971	72.0101
226.864	69.7436
229.757	61.1621
232.649	56.4049
235.542	57.1292
238.435	58.8495
241.327	62.6086
244.22	68.9929
247.113	72.3557
250.006	77.2332
252.898	83.8113
255.791	94.0571
258.684	96.4852
261.576	77.4532
264.469	58.5673
267.362	46.3533
270.255	35.09
273.147	18.3293
276.04	5.76245
278.933	0.555298
281.825	1.50214
284.718	9.07654
287.611	17.4811
290.503	41.764
293.396	56.1615
296.289	56.7343
299.182	45.5189
302.074	34.7607
304.967	25.0336
307.86	25.1247
310.752	24.2783
313.645	32.5037
316.538	43.7633
319.43	52.7375
322.323	55.8859
325.216	63.4636
328.109	62.6125
331.001	55.2516
333.894	40.0292
336.787	24.2374
339.679	10.641
342.572	3.78845
345.465	5.24152
348.357	6.12286
351.25	1.22595
354.143	0.867981
357.036	7.05853
359.928	14.2346
362.821	21.3693
365.714	36.4583
368.606	32.8237
371.499	43.3571
374.392	46.2987
377.284	53.7501
380.177	59.2388
383.07	63.6016
385.962	65.2943
388.855	73.3564
391.748	85.1204
394.641	88.5578
397.533	89.4632
400.426	89.2787
403.319	71.46
406.211	49.5429
409.104	32.5278
411.997	22.7848
414.889	14.5321
417.782	7.33112
420.675	7.08832
423.568	7.99695
426.46	10.4992
429.353	3.20196
432.246	12.4979
435.138	3.79779
438.031	3.0246
440.924	4.26611
443.817	14.6065
446.709	10.7197
449.602	9.71606
452.495	10.6825
455.387	12.3059
458.28	19.1277
461.173	25.6586
464.065	24.8541
466.958	27.4443
469.851	28.6409
472.743	24.1977
475.636	18.4789
478.529	13.1084
481.422	7.02319
484.314	6.96436
487.207	0.430054
490.1	1.67615
492.992	0.192261
495.885	0.078247
498.778	1.61047
501.671	1.42603
504.563	2.1969
507.456	10.27
510.349	9.15247
513.241	19.1291
516.134	14.4117
519.027	15.3754
521.919	5.62793
524.812	6.97717
527.705	8.93689
530.597	4.61902
533.49	5.10095
536.383	14.145
539.276	12.6609
542.168	17.4551
545.061	14.7085
547.954	11.5593
550.846	7.65064
553.739	6.50354
556.632	9.29456
559.524	2.8717
562.417	8.78662
565.31	6.05286
568.203	10.6649
571.095	14.5023
573.988	12.5537
576.881	13.9032
579.773	11.7205
582.666	15.4912
585.559	12.463
588.452	15.8478
591.344	16.1226
594.237	15.0242
597.13	13.3129
600.022	18.2882
602.915	13.0751
605.808	14.6072
608.7	16.3088
611.593	14.827
614.486	9.88794
617.379	6.34082
620.271	6.42798
623.164	0.046631
626.057	0.736816
628.949	4.20886
631.842	1.38367
634.735	1.70935
637.627	7.54163
640.52	4.04968
643.413	8.0271
646.306	10.9298
649.198	19.7516
652.091	15.6594
654.984	17.5006
657.876	22.7466
660.769	19.702
663.662	17.3777
666.554	11.1682
669.447	22.5272
672.34	18.8276
675.232	14.8809
678.125	13.8889
681.018	29.4936
683.911	26.0405
686.803	42.9519
689.696	45.9145
692.589	61.5535
695.481	76.0225
698.374	93.3486
701.267	98.0688
704.159	100.473
707.052	88.8738
709.945	68.0161
712.838	46.0935
715.73	28.3189
718.623	10.9519
721.516	2.06763
724.408	1.06763
727.301	7.55591
730.194	0.668457
733.087	9.33838
735.979	27.7576
738.872	38.144
741.765	54.7078
744.657	75.6543
747.55	89.0335
750.443	111.951
753.335	106.757
756.228	95.3052
759.121	79.4783
762.014	51.706
764.906	35.5752
767.799	20.3796
770.692	14.0432
773.584	13.261
776.477	8.29126
779.37	11.9832
782.262	19.4868
785.155	18.3084
788.048	23.2075
790.941	27.4453
793.833	27.0452
796.726	35.0207
799.619	27.4939
802.511	24.395
805.404	18.2507
808.297	16.75
811.189	16.4136
814.082	2.28711
816.975	0.846924
819.867	0.123291
822.76	8.65015
825.653	0.831543
828.546	7.24414
831.438	15.5293
834.331	5.59033
837.224	8.4353
840.116	8.71265
843.009	13.4026
845.902	16.6216
848.794	13.3184
851.687	24.4922
854.58	34.9851
857.473	52.2617
860.365	58.8315
863.258	77.2581
866.151	97.2822
869.043	117.546
871.936	133.367
874.829	156.275
877.721	159.251
880.614	148.111
883.507	142.622
886.4	120.267
889.292	94.7107
892.185	79.2639
895.078	49.4309
897.97	30.9707
900.863	16.3091
903.756	13.0542
906.649	5.56592
909.541	14.1016
912.434	5.82861
915.327	0.017578
918.219	1.62061
921.112	8.52002
924.005	6.80518
926.897	2.8501
929.79	4.48144
932.683	5.93506
935.575	5.88818
938.468	4.08301
941.361	25.5454
944.254	51.397
947.146	67.5215
950.039	86.3008
952.932	110.486
955.824	139.856
958.717	169.436
961.61	181.48
964.502	183.111
967.395	179.406
970.288	150.366
973.181	142.25
976.073	127.793
978.966	94.3257
981.859	70.4458
984.751	68.2964
987.644	54.2022
990.537	64.4741
993.429	44.0132
996.322	67.9541
999.215	87.0068
1002.11	97.5352
1005	116.523
1007.89	131.384
1010.79	122.136
1013.68	132.797
1016.57	121.228
1019.46	118.644
1022.36	135.541
1025.25	109.685
1028.14	100.168
1031.04	101.211
1033.93	80.2378
1036.82	70.0259
1039.71	45.146
1042.61	23.0073
1045.5	26.1055
1048.39	15.9204
1051.28	14.6738
1054.18	13.3677
1057.07	15.5806
1059.96	6.15918
1062.85	29.0576
1065.75	0.119141
1068.64	9.03369
1071.53	10.8169
1074.42	0.316895
1077.32	9.54199
1080.21	7.48193
1083.1	0.230469
1086	7.01367
1088.89	13.4463
1091.78	15.6113
1094.67	34.5806
1097.57	10.5142
1100.46	26.3164
1103.35	13.3662
1106.24	10.4487
1109.14	28.4785
1112.03	17.0669
1114.92	7.6709
1117.82	8.6582
1120.71	21.6421
1123.6	17.2134
1126.49	2.94678
1129.39	18.6587
1132.28	10.6079
1135.17	43.0513
1138.06	7.55176
1140.96	3.52734
1143.85	0.729492
1146.74	16.3013
1149.63	34.5718
1152.53	36.1895
1155.42	12.8486
1158.31	35.8584
1161.21	36.2656
1164.1	39.4834
1166.99	60.665
1169.88	46.7373
1172.78	55.5176
1175.67	49.2461
1178.56	49.4014
1181.45	46.7529
1184.35	36.1914
1187.24	44.8711
1190.13	57.6152
1193.03	37.0225
1195.92	39.2168
1198.81	54.4805
1201.7	26.4053
1204.6	35.4228
1207.49	23.623
1210.38	3.76074
1213.28	41.8828
1216.17	16.5352
1219.06	15.8828
1221.95	6.85156
1224.85	1.05273
1227.74	21.4756
1230.63	18.125
1233.52	31.3779
1236.42	42.919
1239.31	23.3389
1242.2	39.4199
1245.09	42.6318
1247.99	44.2852
1250.88	4.77441
1253.77	1.96289
1256.66	7.4082
1259.56	2.01856
1262.45	23.6494
1265.34	28.7656
1268.24	8.20898
1271.13	30.5791
1274.02	16.2217
1276.91	17.5781
1279.81	0.010742
1282.7	10.9629
1285.59	0.15625
