Measurement: Raman, 780 nm, unoriented, Raman Data Processed
Mineral: Kosnarite
Rruff sample: R060250
Ideal chemistry: KZr^4+^_2_(P^5+^O_4_)_3_
Locality: Jenipapo District, Itinga, Minas Gerais, Brazil
Source: William W. Pinch
Description: Tan to colorless fragment
Raman shift (cm-1)	intensity
138.298	0
141.191	0.189362
144.084	3.11108
146.977	10.4482
149.869	15.5622
152.762	14.3332
155.655	18.3691
158.547	29.6157
161.44	15.4895
164.333	16.3882
167.226	7.83434
170.118	16.0797
173.011	16.2044
175.904	24.5249
178.796	17.9977
181.689	2.91681
184.582	11.5966
187.474	6.01552
190.367	11.2359
193.26	6.58179
196.153	10.4681
199.045	1.79546
201.938	7.78725
204.831	12.904
207.723	11.8111
210.616	5.67526
213.509	4.02924
216.401	3.40474
219.294	0.345955
222.187	7.98692
225.079	0.889496
227.972	12.3038
230.865	6.84941
233.758	5.70097
236.65	20.8255
239.543	8.88114
242.436	10.3139
245.328	11.6884
248.221	14.1393
251.114	20.117
254.006	25.15
256.899	21.9567
259.792	23.105
262.685	31.4415
265.577	16.4737
268.47	15.4271
271.363	21.4724
274.255	20.3625
277.148	28.7701
280.041	24.8367
282.933	33.9741
285.826	41.6656
288.719	44.3471
291.612	38.487
294.504	32.5265
297.397	14.5516
300.29	18.398
303.182	11.5171
306.075	10.8482
308.968	6.00537
311.861	7.82631
314.753	12.4597
317.646	14.8918
320.539	9.25474
323.431	8.25736
326.324	7.96997
329.217	18.9185
332.109	8.06679
335.002	3.30483
337.895	3.07743
340.788	5.88435
343.68	0.306946
346.573	6.66447
349.466	2.74412
352.358	7.91379
355.251	9.07481
358.144	0.388687
361.036	2.94781
363.929	8.22971
366.822	5.85623
369.715	4.94008
372.607	1.07238
375.5	9.48267
378.393	8.28771
381.285	13.2712
384.178	0.813606
387.071	4.42557
389.964	10.1393
392.856	2.37698
395.749	4.54138
398.642	4.28706
401.534	11.098
404.427	12.6482
407.32	7.14419
410.212	5.08172
413.105	6.76366
415.998	18.4553
418.89	19.8109
421.783	12.6196
424.676	12.8123
427.569	26.5596
430.461	28.5951
433.354	42.7182
436.247	48.9297
439.139	34.9711
442.032	12.3262
444.925	11.3395
447.817	9.60667
450.71	7.72083
453.603	5.30084
456.496	5.19587
459.388	4.55441
462.281	3.11203
465.174	5.19264
468.066	6.53847
470.959	3.42928
473.852	12.0055
476.745	3.413
479.637	7.49286
482.53	3.45369
485.423	7.79229
488.315	8.86007
491.208	18.1502
494.101	5.0405
496.993	7.83598
499.886	6.48156
502.779	9.14513
505.671	8.91861
508.564	4.12595
511.457	10.022
514.35	11.3783
517.242	8.99277
520.135	17.4913
523.028	4.12538
525.92	0.90641
528.813	0.740761
531.706	1.5848
534.598	6.42359
537.491	8.60737
540.384	2.81743
543.277	9.19302
546.169	8.85324
549.062	11.4824
551.955	15.5013
554.847	1.25848
557.74	6.90535
560.633	11.9537
563.525	2.50373
566.418	5.27299
569.311	0.67244
572.204	6.92687
575.096	5.93479
577.989	11.6807
580.882	5.07195
583.774	5.87897
586.667	1.59385
589.56	10.6401
592.452	17.7697
595.345	11.6347
598.238	7.29214
601.131	4.10047
604.023	3.6338
606.916	12.0792
609.809	0.71949
612.701	4.8591
615.594	8.16695
618.487	9.94506
621.38	11.3757
624.272	8.21743
627.165	0.966393
630.058	10.4824
632.95	8.72293
635.843	14.8629
638.736	16.6823
641.628	15.5805
644.521	7.44216
647.414	10.6112
650.307	0.911156
653.199	4.60938
656.092	8.30978
658.985	9.26611
661.877	7.87029
664.77	1.52834
667.663	3.20444
670.555	2.55973
673.448	4.35097
676.341	1.03621
679.234	11.1552
682.126	11.0249
685.019	8.47053
687.912	11.5251
690.804	5.6851
693.697	1.22657
696.59	12.2248
699.482	6.30022
702.375	0.355125
705.268	5.95964
708.16	4.66358
711.053	9.2151
713.946	4.12206
716.839	9.61382
719.731	0.873146
722.624	3.56936
725.517	0.030502
728.409	1.23929
731.302	12.5229
734.195	3.90854
737.087	12.9213
739.98	3.62896
742.873	0.407753
745.766	4.68066
748.658	4.6487
751.551	3.91425
754.444	9.69653
757.336	10.3307
760.229	9.1179
763.122	8.98436
766.014	16.5618
768.907	5.8629
771.8	6.48028
774.693	4.18662
777.585	12.5864
780.478	12.3427
783.371	8.03126
786.263	1.61177
789.156	6.55483
792.049	8.78503
794.942	9.32082
797.834	8.92299
800.727	10.3302
803.62	2.89427
806.512	4.70762
809.405	6.22789
812.298	2.72543
815.19	13.3421
818.083	9.71761
820.976	13.2574
823.869	17.8349
826.761	8.47847
829.654	10.0309
832.547	15.0811
835.439	16.9711
838.332	14.147
841.225	13.2498
844.117	13.5489
847.01	6.59127
849.903	1.43339
852.795	8.39309
855.688	11.193
858.581	12.5861
861.474	10.6093
864.366	6.22155
867.259	8.98863
870.152	17.5544
873.044	4.65327
875.937	10.4062
878.83	20.5134
881.722	9.68184
884.615	10.1953
887.508	6.34329
890.401	15.1378
893.293	7.62258
896.186	5.34039
899.079	2.48011
901.971	8.61605
904.864	1.30559
907.757	1.1621
910.649	0.90081
913.542	9.08629
916.435	4.69583
919.328	12.589
922.22	15.1655
925.113	9.13628
928.006	5.86645
930.898	11.3706
933.791	12.3508
936.684	18.9714
939.577	7.55399
942.469	7.84766
945.362	4.68896
948.255	15.1126
951.147	1.66642
954.04	4.531
956.933	5.3298
959.825	2.44097
962.718	0.730537
965.611	8.28392
968.504	2.86438
971.396	2.82046
974.289	6.54134
977.182	7.46562
980.074	6.16252
982.967	0.733032
985.86	4.78031
988.752	4.08318
991.645	11.766
994.538	12.4072
997.431	1.57958
1000.32	15.2138
1003.22	15.5239
1006.11	13.1271
1009	22.8312
1011.89	46.9606
1014.79	69.8996
1017.68	87.2853
1020.57	117.299
1023.47	145.862
1026.36	139.194
1029.25	92.8812
1032.14	42.3361
1035.04	16.1251
1037.93	11.7155
1040.82	7.50691
1043.71	9.52583
1046.61	6.94905
1049.5	13.2817
1052.39	9.26917
1055.29	12.9071
1058.18	24.4241
1061.07	38.2068
1063.96	25.7045
1066.86	9.43746
1069.75	4.29287
1072.64	4.85536
1075.53	8.24363
1078.43	6.62338
1081.32	6.6142
1084.21	22.6472
1087.1	15.4747
1090	13.0131
1092.89	3.97633
1095.78	8.68055
1098.67	3.43707
1101.57	2.28824
1104.46	6.67681
1107.35	11.1195
1110.25	11.8471
1113.14	0.589867
1116.03	1.51428
1118.92	0.419472
1121.82	5.07927
1124.71	9.72595
1127.6	1.69363
1130.49	3.81503
1133.39	7.7339
1136.28	10.8954
1139.17	11.8788
1142.07	8.43792
1144.96	0.995228
1147.85	8.89477
1150.74	9.27417
1153.64	8.23071
1156.53	12.9004
1159.42	11.2113
1162.31	12.3013
1165.21	4.61107
1168.1	6.13811
1170.99	15.4087
1173.88	12.9052
1176.78	10.5538
1179.67	19.1788
1182.56	17.4885
1185.46	4.16702
1188.35	1.52744
1191.24	7.58866
1194.13	8.40731
1197.03	8.27952
1199.92	12.667
1202.81	10.1939
1205.7	1.96905
1208.6	11.7801
1211.49	4.86345
1214.38	9.86163
1217.28	6.82496
1220.17	8.27944
1223.06	7.88154
1225.95	14.808
1228.85	5.05175
1231.74	13.8778
1234.63	6.89806
1237.53	10.4712
1240.42	9.80861
1243.31	10.1143
1246.2	6.34694
1249.1	6.45456
1251.99	7.0283
1254.88	0.841457
1257.77	3.21559
1260.67	5.69442
1263.56	1.54058
1266.45	16.1943
1269.34	10.5096
1272.24	16.1807
1275.13	11.0794
1278.02	12.3241
1280.91	13.0359
