Measurement: Raman, 780 nm, unoriented, Raman Data Processed
Mineral: Kottigite
Rruff sample: R110032
Ideal chemistry: Zn^2+^_3_(As^5+^O_4_)_2_8H_2_O
Locality: 44 level, Tsumeb mine, Tsumeb, Namibia
Source: William W Pinch
Description: Bundles of gray acicular crystals associated with ludlockite
Raman shift (cm-1)	intensity
179.831	0
182.724	4.92364
185.616	5.50308
188.509	10.5307
191.402	15.1159
194.294	18.6253
197.187	14.5862
200.08	15.3998
202.972	1.11346
205.865	10.2346
208.758	16.4222
211.651	29.0942
214.543	24.8187
217.436	26.0399
220.329	19.4462
223.221	12.6685
226.114	2.88646
229.007	8.00861
231.899	0.485764
234.792	12.6867
237.685	4.39238
240.578	10.3797
243.47	6.42732
246.363	9.16272
249.256	5.52481
252.148	0.224716
255.041	3.47531
257.934	6.98053
260.827	5.83923
263.719	14.5657
266.612	2.92003
269.505	10.4722
272.397	4.71338
275.29	5.83282
278.183	11.8363
281.075	9.13574
283.968	10.6728
286.861	14.2557
289.753	3.70474
292.646	6.68718
295.539	3.70921
298.432	7.09917
301.324	10.5847
304.217	11.3831
307.11	11.841
310.002	14.1826
312.895	13.8863
315.788	1.03268
318.68	8.98474
321.573	4.31451
324.466	8.61687
327.359	5.2774
330.251	10.2292
333.144	2.31989
336.037	6.21172
338.929	7.66097
341.822	12.9721
344.715	8.57588
347.608	12.8797
350.5	13.372
353.393	18.1848
356.286	13.9726
359.178	17.5503
362.071	9.2148
364.964	18.7698
367.856	21.3493
370.749	19.9339
373.642	17.0257
376.534	12.8599
379.427	14.6903
382.32	5.13043
385.213	6.82883
388.105	9.23401
390.998	4.91344
393.891	0.493607
396.783	1.81734
399.676	5.42491
402.569	2.69586
405.462	0.476624
408.354	10.5892
411.247	2.06458
414.14	15.4633
417.032	15.6635
419.925	14.9038
422.818	19.8881
425.71	26.6425
428.603	32.3391
431.496	28.6887
434.389	29.0068
437.281	27.4203
440.174	29.257
443.067	33.5711
445.959	38.4123
448.852	24.4741
451.745	26.0131
454.637	32.4834
457.53	21.8748
460.423	26.6706
463.315	19.1436
466.208	9.11568
469.101	14.3604
471.994	14.3736
474.886	15.426
477.779	9.96947
480.672	14.6616
483.564	18.4587
486.457	13.7833
489.35	10.2106
492.243	3.1696
495.135	10.1519
498.028	7.27141
500.921	5.00499
503.813	5.366
506.706	9.87767
509.599	9.67258
512.491	11.2073
515.384	9.51117
518.277	4.64232
521.169	2.33736
524.062	4.43083
526.955	6.99571
529.848	2.05537
532.74	8.00957
535.633	10.1495
538.526	9.98717
541.418	5.79512
544.311	4.91069
547.204	0.713745
550.096	0.234459
552.989	4.8293
555.882	4.50971
558.775	11.7357
561.667	1.09127
564.56	10.0248
567.453	9.24726
570.345	2.68453
573.238	2.18793
576.131	9.22183
579.024	1.61517
581.916	2.37506
584.809	6.57356
587.702	1.29476
590.594	7.14315
593.487	2.7367
596.38	4.73147
599.272	5.6955
602.165	4.59089
605.058	1.79904
607.951	6.75427
610.843	11.6862
613.736	14.2829
616.629	7.10904
619.521	6.05039
622.414	6.5419
625.307	8.07541
628.199	9.7982
631.092	11.1806
633.985	8.74716
636.878	5.91859
639.77	10.5418
642.663	12.5518
645.556	14.5011
648.448	10.2164
651.341	10.4064
654.234	9.81638
657.126	1.90946
660.019	5.50762
662.912	8.62056
665.804	8.93797
668.697	6.69456
671.59	4.0984
674.483	7.53661
677.375	4.06168
680.268	8.00767
683.161	12.6816
686.053	8.35438
688.946	13.9576
691.839	13.0631
694.731	13.5099
697.624	6.5856
700.517	0.931351
703.41	6.24421
706.302	9.64364
709.195	7.91068
712.088	0.742279
714.98	5.52528
717.873	3.79681
720.766	1.15841
723.659	9.37306
726.551	2.62421
729.444	8.25709
732.337	5.06297
735.229	0.402214
738.122	1.2072
741.015	5.41888
743.907	4.02212
746.8	2.13792
749.693	4.28555
752.586	4.90634
755.478	0.709076
758.371	4.49142
761.264	9.19611
764.156	6.87175
767.049	5.70821
769.942	5.17481
772.834	16.7243
775.727	22.0511
778.62	17.9548
781.513	35.2496
784.405	41.9806
787.298	47.3962
790.191	45.3727
793.083	41.4271
795.976	53.4115
798.869	51.5049
801.761	45.4017
804.654	37.5008
807.547	41.1693
810.439	32.712
813.332	30.3809
816.225	39.7932
819.118	30.6503
822.01	32.8805
824.903	36.5047
827.796	29.7103
830.688	43.5539
833.581	46.724
836.474	51.6437
839.366	70.5201
842.259	75.3754
845.152	89.8916
848.045	105.011
850.937	96.9241
853.83	86.1198
856.723	64.5795
859.615	52.9504
862.508	39.9027
865.401	31.9559
868.293	37.3308
871.186	24.1129
874.079	25.6847
876.972	15.1471
879.864	19.0413
882.757	13.4573
885.65	12.2133
888.542	11.3725
891.435	3.33405
894.328	2.01607
897.221	0.161034
900.113	5.42555
903.006	3.67061
905.899	9.44209
908.791	0.959534
911.684	4.73892
914.577	0.509697
917.469	3.47465
920.362	1.12833
923.255	6.94596
926.148	3.72559
929.04	1.72207
931.933	3.70519
934.826	2.97899
937.718	3.42316
940.611	6.14771
943.504	0.007309
946.396	0.806427
949.289	0.583397
952.182	5.01257
955.074	5.57812
957.967	0.185074
960.86	6.32103
963.753	6.21412
966.645	6.83624
969.538	4.17157
972.431	6.01751
975.323	8.36652
978.216	0.109138
981.109	6.54368
984.001	3.51054
986.894	1.36337
989.787	2.33518
992.68	9.83673
995.572	7.79961
998.465	7.78391
1001.36	8.08437
1004.25	9.34979
1007.14	10.5268
1010.04	11.4357
1012.93	7.94743
1015.82	3.37542
1018.71	4.01685
1021.61	7.80528
1024.5	8.7819
1027.39	6.22115
1030.29	6.97199
1033.18	2.57068
1036.07	1.01819
1038.96	3.30676
1041.86	6.65302
1044.75	9.13442
1047.64	8.06173
1050.53	2.87661
1053.43	8.90704
1056.32	4.4392
1059.21	8.97475
1062.1	7.08948
1065	2.2556
1067.89	9.8164
1070.78	10.2514
1073.67	4.85962
1076.57	3.36549
1079.46	7.03033
1082.35	7.51757
1085.25	9.04781
1088.14	12.3521
1091.03	10.8812
1093.92	5.60684
1096.82	6.4228
1099.71	2.20741
1102.6	7.10097
1105.49	1.4879
1108.39	8.18908
1111.28	4.70289
1114.17	10.5747
1117.07	5.02114
1119.96	1.74815
1122.85	6.76974
1125.74	9.03643
1128.64	7.00632
1131.53	6.17678
1134.42	3.42919
1137.32	10.5
1140.21	1.90499
1143.1	7.51566
1145.99	0.067677
1148.88	6.32382
1151.78	0.91851
1154.67	3.26938
1157.56	0.96843
1160.46	5.3543
1163.35	6.04262
1166.24	3.04631
1169.13	13.2186
1172.03	5.9082
1174.92	7.14333
1177.81	8.45871
1180.7	3.4346
1183.6	13.7119
1186.49	9.18828
1189.38	14.5968
1192.28	13.2836
1195.17	1.6035
1198.06	5.00374
1200.95	6.85489
1203.85	7.11562
1206.74	4.65585
1209.63	7.4472
1212.53	10.3855
1215.42	6.5827
1218.31	10.0749
1221.2	4.33252
1224.1	3.08834
1226.99	8.12884
1229.88	3.13066
1232.77	4.95356
1235.67	7.64572
1238.56	7.38763
1241.45	6.58384
1244.34	9.8752
1247.24	8.22075
1250.13	7.98236
1253.02	9.94405
1255.91	13.4119
1258.81	0.211231
1261.7	9.53997
1264.59	6.96871
1267.49	18.0252
1270.38	14.604
1273.27	5.7568
1276.16	9.82554
1279.06	13.3475
1281.95	10.05
1284.84	1.03239
