Measurement: Raman, 780 nm, unoriented, Raman Data Processed
Mineral: Kottigite
Rruff sample: R110035
Ideal chemistry: Zn^2+^_3_(As^5+^O_4_)_2_8H_2_O
Locality: Ojuela mine, Mapimi, Durango, Mexico
Source: The University of Arizona Mineral Museum
Description: Spray of dark blue bladed crystals
Raman shift (cm-1)	intensity
162.475	0
165.367	0.179916
168.26	3.38972
171.153	2.08693
174.046	3.57079
176.938	5.98466
179.831	10.0911
182.724	11.1103
185.616	17.7166
188.509	25.8386
191.402	30.3402
194.294	43.3854
197.187	53.0518
200.08	66.6744
202.972	81.4174
205.865	88.4095
208.758	98.1737
211.651	107.343
214.543	114.254
217.436	106.417
220.329	101.716
223.221	90.4486
226.114	92.0818
229.007	76.9137
231.899	64.8301
234.792	52.6527
237.685	47.8935
240.578	42.3822
243.47	38.3652
246.363	26.7602
249.256	22.7585
252.148	11.5348
255.041	7.99182
257.934	5.90771
260.827	5.84994
263.719	5.38664
266.612	4.1033
269.505	3.42346
272.397	9.30247
275.29	8.33072
278.183	8.94307
281.075	14.0903
283.968	12.7731
286.861	15.8874
289.753	17.6845
292.646	13.4031
295.539	11.0325
298.432	9.58171
301.324	5.63007
304.217	2.12579
307.11	1.23708
310.002	2.61478
312.895	3.28136
315.788	1.25229
318.68	0.276459
321.573	3.76549
324.466	2.82304
327.359	0.433823
330.251	6.23377
333.144	2.65498
336.037	4.51216
338.929	4.10936
341.822	7.93242
344.715	1.94797
347.608	3.79059
350.5	2.35448
353.393	2.8241
356.286	3.72108
359.178	4.24496
362.071	10.5616
364.964	9.71913
367.856	13.8201
370.749	13.1395
373.642	9.49795
376.534	9.81383
379.427	8.53902
382.32	9.40836
385.213	4.97342
388.105	4.761
390.998	4.34352
393.891	0.412804
396.783	0.146004
399.676	0.922646
402.569	0.242996
405.462	0.956528
408.354	6.45758
411.247	11.0576
414.14	15.6076
417.032	21.5221
419.925	26.7644
422.818	40.2598
425.71	45.6078
428.603	57.3928
431.496	61.0923
434.389	67.1054
437.281	70.9159
440.174	75.3914
443.067	76.5919
445.959	79.6677
448.852	82.0935
451.745	81.4972
454.637	73.7209
457.53	61.0883
460.423	47.6402
463.315	38.4013
466.208	33.8923
469.101	33.7083
471.994	28.0656
474.886	30.8457
477.779	29.7501
480.672	22.5593
483.564	16.4723
486.457	10.6719
489.35	8.74587
492.243	5.04916
495.135	3.66627
498.028	2.18259
500.921	0.159843
503.813	1.72708
506.706	2.83064
509.599	1.13232
512.491	4.0592
515.384	1.98875
518.277	4.61569
521.169	2.32211
524.062	3.886
526.955	10.2029
529.848	8.86027
532.74	12.0274
535.633	17.7884
538.526	17.6016
541.418	17.9946
544.311	18.0418
547.204	20.4684
550.096	15.4413
552.989	15.1914
555.882	16.9199
558.775	11.4822
561.667	12.0069
564.56	9.77032
567.453	5.71252
570.345	4.48672
573.238	5.69987
576.131	1.00452
579.024	2.01903
581.916	0.438835
584.809	2.24165
587.702	0.689835
590.594	2.04668
593.487	0.323616
596.38	1.58266
599.272	0.299377
602.165	3.22839
605.058	0.632454
607.951	5.00453
610.843	4.12503
613.736	4.36991
616.629	1.35323
619.521	7.12819
622.414	6.46085
625.307	5.92722
628.199	6.10492
631.092	4.74756
633.985	7.27283
636.878	9.1935
639.77	7.27969
642.663	10.2901
645.556	7.57989
648.448	9.17015
651.341	7.4529
654.234	7.30067
657.126	5.78346
660.019	5.92117
662.912	5.14561
665.804	2.73636
668.697	7.36726
671.59	5.92652
674.483	7.60406
677.375	2.18573
680.268	6.88317
683.161	5.93956
686.053	2.75314
688.946	5.51787
691.839	5.73766
694.731	5.66407
697.624	4.647
700.517	1.74657
703.41	4.05559
706.302	3.85973
709.195	2.53863
712.088	2.3706
714.98	2.55601
717.873	0.770599
720.766	3.01457
723.659	0.077187
726.551	1.79829
729.444	2.20521
732.337	0.341064
735.229	0.637627
738.122	1.91943
741.015	4.06553
743.907	2.42596
746.8	0.97226
749.693	1.83907
752.586	1.70051
755.478	4.53111
758.371	7.77274
761.264	9.64434
764.156	13.9561
767.049	16.4394
769.942	24.2679
772.834	33.9842
775.727	43.8024
778.62	57.58
781.513	68.1984
784.405	87.1888
787.298	96.6537
790.191	108.276
793.083	112.746
795.976	106.145
798.869	100.759
801.761	88.2312
804.654	84.5161
807.547	79.1981
810.439	75.4843
813.332	75.2385
816.225	74.0212
819.118	71.6597
822.01	72.2314
824.903	73.4661
827.796	79.6944
830.688	79.8999
833.581	86.2391
836.474	88.1861
839.366	90.5819
842.259	82.0684
845.152	75.5862
848.045	67.2646
850.937	61.8904
853.83	64.9444
856.723	63.4837
859.615	65.1135
862.508	55.0297
865.401	46.8041
868.293	41.5888
871.186	37.4342
874.079	36.2779
876.972	32.969
879.864	29.2894
882.757	24.0809
885.65	22.4824
888.542	13.8788
891.435	13.0803
894.328	9.23726
897.221	3.34757
900.113	3.47634
903.006	0.278679
905.899	0.270103
908.791	1.7776
911.684	0.434929
914.577	1.62054
917.469	0.710335
920.362	0.712303
923.255	1.01837
926.148	1.48785
929.04	2.34509
931.933	2.57698
934.826	0.881508
937.718	0.694862
940.611	1.65486
943.504	2.06149
946.396	4.24538
949.289	0.878159
952.182	2.46685
955.074	6.24366
957.967	4.43207
960.86	4.41113
963.753	6.23079
966.645	5.68129
969.538	7.21996
972.431	9.21786
975.323	8.76445
978.216	7.95718
981.109	8.29028
984.001	7.62006
986.894	7.44115
989.787	5.07341
992.68	6.19074
995.572	4.93555
998.465	9.18468
1001.36	4.53677
1004.25	5.61882
1007.14	6.71553
1010.04	6.67985
1012.93	6.73225
1015.82	4.89194
1018.71	1.81367
1021.61	5.31464
1024.5	3.99769
1027.39	3.36621
1030.29	4.51565
1033.18	6.77692
1036.07	2.22663
1038.96	3.52705
1041.86	3.53787
1044.75	3.47875
1047.64	2.62602
1050.53	4.32083
1053.43	5.40811
1056.32	0.847137
1059.21	7.03258
1062.1	1.1557
1065	3.2565
1067.89	2.85466
1070.78	4.13473
1073.67	3.1591
1076.57	0.664074
1079.46	1.74645
1082.35	3.53022
1085.25	1.90954
1088.14	3.73231
1091.03	3.06324
1093.92	2.50326
1096.82	4.18193
1099.71	4.93574
1102.6	3.53635
1105.49	3.17374
1108.39	2.22887
1111.28	0.923763
1114.17	3.01166
1117.07	3.02705
1119.96	1.77285
1122.85	2.06872
1125.74	1.79682
1128.64	1.91643
1131.53	2.62942
1134.42	0.56776
1137.32	1.327
1140.21	2.77188
1143.1	3.21999
1145.99	1.18351
1148.88	2.99876
1151.78	1.61317
1154.67	2.37343
1157.56	1.88242
1160.46	2.62511
1163.35	4.27085
1166.24	0.754391
1169.13	1.19751
1172.03	0.445572
1174.92	4.15752
1177.81	2.02969
1180.7	4.64136
1183.6	4.13816
1186.49	6.14123
1189.38	6.43494
1192.28	3.37018
1195.17	4.06154
1198.06	2.13971
1200.95	0.437023
1203.85	3.112
1206.74	1.52444
1209.63	4.03673
1212.53	4.11212
1215.42	2.13716
1218.31	1.43355
1221.2	3.01037
1224.1	2.12091
1226.99	2.33176
1229.88	6.95113
1232.77	1.13461
1235.67	4.75656
1238.56	3.31751
1241.45	7.11707
1244.34	3.7626
1247.24	5.18811
1250.13	1.95155
1253.02	1.56212
1255.91	2.97587
1258.81	3.74309
1261.7	2.64934
1264.59	2.25151
1267.49	3.12906
1270.38	1.73705
1273.27	2.29251
1276.16	1.2815
1279.06	2.78832
1281.95	0.131256
1284.84	1.08429
