Measurement: Raman, 532 nm, unoriented, Raman Data Processed
Mineral: Krasnoite
Rruff sample: R120056
Ideal chemistry: Ca_3_Al_7.7_Si_3_P_4_O_23.5_(OH)_12.1_F_2_8H_2_O
Locality: Horn√≠ Slavkov, Czech Republic
Source: Bob Jenkins
Description: Aggregate of colorless thin hexagonal plates on quartz
Raman shift (cm-1)	intensity
195.594	0
198.486	0.899597
201.379	3.21069
204.272	5.22501
207.164	9.04672
210.057	12.7513
212.95	13.5381
215.843	11.2838
218.735	11.1428
221.628	8.36444
224.521	9.36594
227.413	13.0649
230.306	12.8927
233.199	12.1538
236.091	13.8317
238.984	11.5685
241.877	12.208
244.769	11.8184
247.662	13.712
250.555	16.0382
253.448	16.0049
256.34	19.2536
259.233	21.3407
262.126	24.6785
265.018	27.9412
267.911	27.2439
270.804	27.8706
273.697	27.7087
276.589	25.4121
279.482	20.9366
282.375	16.262
285.267	12.1314
288.16	7.24127
291.053	4.62579
293.945	4.6695
296.838	1.94833
299.731	4.71786
302.623	2.66879
305.516	2.64181
308.409	4.61322
311.302	1.66049
314.194	0.719116
317.087	0.931091
319.98	0.72937
322.872	1.50708
325.765	0.028595
328.658	1.46979
331.55	0.166351
334.443	1.39325
337.336	4.54398
340.229	5.81436
343.121	5.55887
346.014	6.24582
348.907	9.06403
351.799	12.0465
354.692	16.5758
357.585	20.2663
360.478	25.2318
363.37	25.3828
366.263	22.9763
369.156	21.0934
372.048	17.5825
374.941	10.3403
377.834	10.0811
380.726	8.66989
383.619	9.38132
386.512	12.9502
389.404	9.50748
392.297	9.30106
395.19	6.56958
398.083	4.819
400.975	5.94961
403.868	3.96075
406.761	3.33728
409.653	0.653137
412.546	1.45773
415.439	0.863617
418.332	0.822357
421.224	1.2005
424.117	0.690887
427.01	0.403534
429.902	2.59683
432.795	0.838928
435.688	0.246643
438.58	1.16931
441.473	0.02951
444.366	2.95847
447.259	2.30368
450.151	5.16043
453.044	4.78143
455.937	6.83466
458.829	7.9079
461.722	8.71481
464.615	9.52039
467.507	8.23718
470.4	6.35776
473.293	7.5535
476.185	7.25748
479.078	6.68918
481.971	7.89398
484.864	12.34
487.756	14.8271
490.649	20.2416
493.542	28.1861
496.434	36.2857
499.327	46.7045
502.22	54.3989
505.113	62.8104
508.005	66.463
510.898	72.9603
513.791	72.5599
516.683	66.135
519.576	52.1232
522.469	44.8762
525.361	38.1707
528.254	33.5544
531.147	23.398
534.04	16.7793
536.932	12.856
539.825	8.9895
542.718	9.83575
545.61	6.86652
548.503	6.21735
551.396	7.05096
554.288	2.70679
557.181	3.10571
560.074	2.30768
562.967	1.65973
565.859	0.406433
568.752	0.684692
571.645	0.451416
574.537	0.988037
577.43	1.18799
580.323	2.55194
583.216	1.90967
586.108	2.22315
589.001	1.13361
591.894	3.32538
594.786	5.95233
597.679	2.48993
600.572	7.87354
603.464	6.67682
606.357	11.9175
609.25	18.4663
612.142	24.7206
615.035	30.4115
617.928	35.0864
620.821	36.4531
623.713	35.5565
626.606	34.1227
629.499	31.4302
632.391	33.289
635.284	36.5014
638.177	30.9086
641.069	28.7724
643.962	26.1373
646.855	20.2801
649.747	18.2361
652.64	13.4616
655.533	13.5885
658.426	9.51086
661.318	5.78705
664.211	3.54138
667.104	3.68481
669.996	0.475525
672.889	2.21228
675.782	0.125183
678.674	0.351746
681.567	2.19739
684.46	3.00238
687.353	1.86914
690.245	4.27753
693.138	9.16943
696.031	8.36591
698.923	12.0397
701.816	10.1182
704.709	10.2524
707.601	10.8023
710.494	11.991
713.387	9.80603
716.28	7.52472
719.172	3.47553
722.065	2.6004
724.958	3.82306
727.85	2.4267
730.743	3.39703
733.636	1.67267
736.529	1.3775
739.421	0.669495
742.314	0.423401
745.207	2.09851
748.099	0.013855
750.992	0.324463
753.885	3.94342
756.777	3.02631
759.67	5.40051
762.563	0.967651
765.456	2.19373
768.348	4.86871
771.241	1.47784
774.134	1.89874
777.026	3.58923
779.919	5.24927
782.812	5.45667
785.704	4.19409
788.597	3.43695
791.49	4.83002
794.383	6.37054
797.275	1.57092
800.168	1.87006
803.061	3.74127
805.953	2.70288
808.846	5.97296
811.739	3.17133
814.631	5.771
817.524	5.68585
820.417	6.88947
823.309	4.34711
826.202	3.79968
829.095	0.61438
831.988	1.39996
834.88	2.97467
837.773	0.201721
840.666	3.95612
843.558	3.01569
846.451	2.79102
849.344	1.3443
852.236	1.90375
855.129	2.1236
858.022	1.86029
860.915	3.17267
863.807	4.79584
866.7	2.26367
869.593	0.980774
872.485	4.1817
875.378	3.36591
878.271	3.539
881.163	1.34741
884.056	5.198
886.949	4.79327
889.842	5.99097
892.734	4.93341
895.627	2.16699
898.52	0.974792
901.412	1.67371
904.305	1.54394
907.198	3.02631
910.091	5.19116
912.983	6.20636
915.876	4.38342
918.769	4.01447
921.661	0.944031
924.554	2.96924
927.447	2.97388
930.339	0.311707
933.232	0.120605
936.125	2.97229
939.018	2.45721
941.91	0.235901
944.803	1.24853
947.696	1.49084
950.588	3.07544
953.481	3.87311
956.374	7.44006
959.266	7.34418
962.159	9.28174
965.052	15.8614
967.944	9.32599
970.837	4.95813
973.73	1.34314
976.623	2.62982
979.515	5.87305
982.408	3.3894
985.301	6.85449
988.193	11.6801
991.086	17.6561
993.979	17.5911
996.871	25.3577
999.764	32.5065
1002.66	40.1949
1005.55	52.8055
1008.44	57.7694
1011.34	58.288
1014.23	47.3855
1017.12	41.0721
1020.01	35.822
1022.91	34.8396
1025.8	39.8752
1028.69	52.0935
1031.58	56.2908
1034.48	51.9111
1037.37	40.1795
1040.26	24.663
1043.15	18.2006
1046.05	13.1757
1048.94	12.8332
1051.83	10.6571
1054.73	11.6372
1057.62	11.6359
1060.51	6.78796
1063.4	9.83728
1066.3	3.20367
1069.19	3.57001
1072.08	3.54779
1074.97	0.045593
1077.87	3.39947
1080.76	5.46338
1083.65	9.58008
1086.55	16.1434
1089.44	16.328
1092.33	18.6237
1095.22	15.9459
1098.12	15.9942
1101.01	11.0089
1103.9	2.87946
1106.79	3.84314
1109.69	0.882385
1112.58	2.95624
1115.47	2.56311
1118.37	0.25238
1121.26	0.713684
1124.15	1.34827
1127.04	1.24524
1129.94	0.743347
1132.83	0.690552
1135.72	0.653503
1138.61	2.4726
1141.51	2.61096
1144.4	2.83856
1147.29	2.99933
1150.18	3.08203
1153.08	4.0235
1155.97	3.57233
1158.86	1.23431
1161.76	0.444702
1164.65	7.04462
1167.54	6.18365
1170.43	4.53192
1173.33	5.94367
1176.22	5.35364
1179.11	10.1708
1182	15.9835
1184.9	8.94244
1187.79	13.3469
1190.68	12.568
1193.58	13.5004
1196.47	12.5328
1199.36	10.7763
1202.25	12.0617
1205.15	8.32849
1208.04	11.7347
1210.93	10.9704
1213.82	14.824
1216.72	8.42285
1219.61	5.6167
1222.5	2.56348
1225.39	5.98157
1228.29	6.12555
1231.18	5.19665
1234.07	0.978943
1236.97	1.50421
1239.86	1.41235
1242.75	3.78082
1245.64	2.99939
1248.54	3.65942
1251.43	1.22613
1254.32	2.71484
1257.21	2.91296
1260.11	4.79913
1263	6.99622
1265.89	5.7926
1268.79	4.18506
1271.68	4.68628
1274.57	4.36902
1277.46	2.27271
1280.36	0.467896
1283.25	0.671509
1286.14	1.80005
1289.03	5.06494
1291.93	3.63269
1294.82	3.71777
1297.71	0.572754
1300.61	6.70288
