Measurement: Raman, 532 nm, unoriented, Raman Data Processed
Mineral: Krauskopfite
Rruff sample: R070657
Ideal chemistry: BaSi_2_O_5_3H_2_O
Locality: Rush Creek, Fresno County, California, USA
Source: Michael Scott
Description: Colorless to white bladed crystals associated with witherite and quartz.
Raman shift (cm-1)	intensity
134.575	0
137.95	104.134
141.325	391.984
144.7	408.103
148.075	505.346
151.449	513.461
154.824	339.769
158.199	342.905
161.574	317.446
164.949	276.818
168.323	190.716
171.698	134.53
175.073	22.4951
178.448	87.1602
181.823	23.4605
185.198	38.77
188.572	56.3272
191.947	8.87598
195.322	29.918
198.697	51.8779
202.072	155.709
205.446	121.817
208.821	108.858
212.196	169.323
215.571	163.255
218.946	137.125
222.321	77.5571
225.695	75.958
229.07	125.25
232.445	125.929
235.82	138.93
239.195	78.9297
242.57	124.305
245.944	218.223
249.319	212.175
252.694	81.9736
256.069	92.5977
259.443	87.8281
262.818	198.333
266.193	89.7002
269.568	146.616
272.943	83.2295
276.318	15.7725
279.692	95.1416
283.067	0.335938
286.442	36.0908
289.817	33.0518
293.192	161.224
296.567	67.833
299.941	172.486
303.316	223.906
306.691	286.308
310.066	266.688
313.441	316.558
316.815	325.241
320.19	296.741
323.565	276.026
326.94	286.919
330.315	264.741
333.69	179.306
337.064	205
340.439	194.428
343.814	235.368
347.189	326.234
350.564	381.21
353.938	243.341
357.313	51.8916
360.688	179.759
364.063	160.243
367.438	157.309
370.812	8.74609
374.187	72.249
377.562	108.292
380.937	41.9551
384.312	111.131
387.687	58.4805
391.061	40.3281
394.436	37.7275
397.811	13.1826
401.186	28.917
404.561	6.87207
407.935	11.502
411.31	74.3877
414.685	95.8506
418.06	97.5811
421.435	136.803
424.81	172.088
428.184	139.696
431.559	183.94
434.934	103.821
438.309	240.232
441.684	98.999
445.058	287.554
448.433	153.635
451.808	141.769
455.183	220.828
458.558	126.541
461.933	194.116
465.307	80.1064
468.682	10.3896
472.057	41.0752
475.432	15.0654
478.807	11.7803
482.181	57.3379
485.556	187.299
488.931	102.97
492.306	105.616
495.681	70.8096
499.055	53.4844
502.43	14.8369
505.805	118.692
509.18	63.9355
512.555	188.107
515.929	153.678
519.304	13.1738
522.679	56.126
526.054	8.37695
529.429	123.54
532.804	19.0342
536.178	26.4014
539.553	76.3106
542.928	118.516
546.303	107.463
549.678	180.346
553.053	25.498
556.427	79.0352
559.802	110.443
563.177	106.688
566.552	234.985
569.927	284.599
573.301	231.13
576.676	324.15
580.051	503.653
583.426	549.31
586.801	806.851
590.176	902.855
593.55	891.574
596.925	795.517
600.3	680.482
603.675	676.456
607.05	496.435
610.424	459.151
613.799	420.057
617.174	381.463
620.549	418.498
623.924	316.375
627.298	269.401
630.673	244.632
634.048	292.728
637.423	154.069
640.798	97.2568
644.173	98.2598
647.547	32.3994
650.922	65.3447
654.297	6.11816
657.672	74.3115
661.047	73.9805
664.421	50.3906
667.796	32.8174
671.171	95.0381
674.546	65.1182
677.921	35.3867
681.295	20.1045
684.67	58.4629
688.045	1.73535
691.42	87.8936
694.795	192.769
698.17	217.3
701.544	186.424
704.919	181.81
708.294	42.6172
711.669	56.7871
715.044	150.855
718.418	77.1709
721.793	28.2656
725.168	49.5147
728.543	43.79
731.918	87.2744
735.293	40.6055
738.667	67.6582
742.042	58.0488
745.417	51.3242
748.792	81.2695
752.167	91.459
755.541	130.578
758.916	52.0508
762.291	22.2207
765.666	12.2783
769.041	101.9
772.415	143.73
775.79	96.1143
779.165	103.071
782.54	74.7363
785.915	65.917
789.29	124.434
792.664	99.0469
796.039	102.367
799.414	156.28
802.789	4.27051
806.164	25.2764
809.538	94.0293
812.913	184.032
816.288	53.7402
819.663	26.0234
823.038	156.377
826.413	149.926
829.787	157.362
833.162	105.897
836.537	95.9287
839.912	150.788
843.287	63.7959
846.661	0.876953
850.036	43.2715
853.411	1.24707
856.786	25.3955
860.161	75.3633
863.535	72.9033
866.91	42.1885
870.285	55.1895
873.66	5.625
877.035	20.6367
880.41	0.839844
883.784	86.4902
887.159	3.375
890.534	95.0234
893.909	70.6846
897.284	149.372
900.659	155.03
904.033	168.41
907.408	70.7041
910.783	141.76
914.158	35.1406
917.533	96.4492
920.907	139.013
924.282	209.669
927.657	331.235
931.032	359.351
934.407	380.42
937.782	336.426
941.156	325.112
944.531	115.893
947.906	140.276
951.281	68.3545
954.656	68.2705
958.03	84.0156
961.405	107.747
964.78	60.7754
968.155	104.601
971.53	109.48
974.904	76.5518
978.279	73.874
981.654	21.7588
985.029	75.999
988.404	97.084
991.779	5.85742
995.153	80.2422
998.528	78.3408
1001.9	109.782
1005.28	121.349
1008.65	183.884
1012.03	116.562
1015.4	32.5293
1018.78	30.8623
1022.15	45.6065
1025.53	68.8916
1028.9	150.694
1032.28	180.669
1035.65	155.89
1039.03	129.451
1042.4	48.5205
1045.78	134.128
1049.15	34.541
1052.53	184.106
1055.9	205.096
1059.28	156.665
1062.65	83.8223
1066.03	137.009
1069.4	33.2676
1072.77	9.37891
1076.15	51.8359
1079.52	123.423
1082.9	145.948
1086.27	159.909
1089.65	56.1621
1093.02	143.747
1096.4	233.522
1099.77	238.919
1103.15	206.592
1106.52	260.317
1109.9	159.262
1113.27	223.782
1116.65	282.021
1120.02	217.775
1123.4	96.501
1126.77	68.7705
1130.15	99.9453
1133.52	44.1621
1136.9	4.28906
1140.27	10.9736
1143.64	27.9893
1147.02	1.12012
1150.39	19.2314
1153.77	4.75098
1157.14	103.747
1160.52	26.0645
1163.89	85.7734
1167.27	37.6914
1170.64	167.67
1174.02	14.1055
1177.39	73.0117
1180.77	65.3311
1184.14	11.6328
1187.52	71.6426
1190.89	118.767
1194.27	165.342
1197.64	98.4346
1201.02	52.3203
1204.39	147.816
1207.77	123.662
1211.14	89.6182
1214.52	22.8057
1217.89	48.9932
1221.27	96.5127
1224.64	22.2041
1228.02	36.4971
1231.39	100.52
1234.77	72.0186
1238.14	51.5772
1241.52	55.2109
1244.89	142.341
1248.27	98.2627
1251.64	30.0664
1255.01	152.636
1258.39	68.083
1261.76	43.8643
1265.14	39.3594
1268.51	26.3486
1271.89	33.9385
1275.26	92.1152
1278.64	135.749
1282.01	147.314
1285.39	52.0303
1288.76	88.4531
1292.14	68.6572
1295.51	11.4922
1298.89	1.54688
1302.26	92.083
