Measurement: Raman, 780 nm, unoriented, Raman Data Processed
Mineral: Krauskopfite
Rruff sample: R070657
Ideal chemistry: BaSi_2_O_5_3H_2_O
Locality: Rush Creek, Fresno County, California, USA
Source: Michael Scott
Description: Colorless to white bladed crystals associated with witherite and quartz.
Raman shift (cm-1)	intensity
95.2395	0
98.6143	79.1768
101.989	33.583
105.364	2.25781
108.739	49.1514
112.114	47.6724
115.488	98.9829
118.863	71.1445
122.238	132.963
125.613	76.1401
128.988	109.963
132.363	16.7686
135.737	46.8477
139.112	88.4282
142.487	132.376
145.862	187.001
149.237	150.295
152.611	199.147
155.986	318.785
159.361	311.332
162.736	237.265
166.111	174.534
169.486	173.367
172.86	161.877
176.235	45.7222
179.61	85.8879
182.985	25.4705
186.36	55.8103
189.734	26.6396
193.109	127.046
196.484	5.37891
199.859	32.6492
203.234	19.5342
206.608	76.9243
209.983	88.2659
213.358	128.956
216.733	86.0276
220.108	88.6064
223.483	61.9368
226.857	59.5349
230.232	41.541
233.607	28.2688
236.982	54.8335
240.357	125.618
243.732	158.071
247.106	106.48
250.481	53.1609
253.856	31.123
257.231	82.6204
260.606	101.077
263.98	74.6387
267.355	70.1626
270.73	60.3313
274.105	82.5071
277.48	69.7661
280.854	26.8711
284.229	69.4888
287.604	20.9541
290.979	18.9895
294.354	73.168
297.729	96.5835
301.103	108.469
304.478	146.763
307.853	174.871
311.228	184.704
314.603	163.776
317.978	164.309
321.352	91.4194
324.727	140.499
328.102	137.542
331.477	147.94
334.852	117.598
338.226	120.131
341.601	138.544
344.976	126.606
348.351	182.008
351.726	150.027
355.101	104.531
358.475	133.713
361.85	34.446
365.225	44.0523
368.6	9.23706
371.975	7.73584
375.349	25.0373
378.724	101.11
382.099	40.0017
385.474	25.8794
388.849	14.6619
392.224	23.511
395.598	76.988
398.973	32.0227
402.348	28.7949
405.723	72.9473
409.098	8.50537
412.472	52.627
415.847	59.8694
419.222	28.9053
422.597	103.031
425.972	42.7246
429.346	132.592
432.721	121.996
436.096	103.428
439.471	173.368
442.846	159.775
446.221	80.5806
449.595	138.351
452.97	125.404
456.345	124.184
459.72	112.187
463.095	127.29
466.469	66.1084
469.844	63.1018
473.219	25.7463
476.594	66.4192
479.969	50.6501
483.344	7.81909
486.718	13.677
490.093	41.5928
493.468	31.9172
496.843	17.395
500.218	48.418
503.592	54.4739
506.967	66.5666
510.342	25.8091
513.717	70.1321
517.092	52.2996
520.467	96.2725
523.841	41.6497
527.216	35.1846
530.591	0.359131
533.966	20.4902
537.341	27.8259
540.716	7.948
544.09	30.4192
547.465	30.3972
550.84	21.8137
554.215	12.2131
557.59	20.72
560.964	9.48218
564.339	88.5278
567.714	120.017
571.089	157.697
574.464	176.205
577.838	209.42
581.213	302.443
584.588	362.277
587.963	419.135
591.338	499.595
594.713	452.974
598.087	407.346
601.462	339.585
604.837	293.124
608.212	201.983
611.587	155.081
614.962	109.759
618.336	150.563
621.711	131.109
625.086	149.997
628.461	99.1218
631.836	83.8762
635.21	103.575
638.585	85.75
641.96	15.3743
645.335	16.075
648.71	6.19897
652.085	17.188
655.459	33.4573
658.834	24.0454
662.209	69.3208
665.584	32.8191
668.959	0.950195
672.333	33.9817
675.708	28.7063
679.083	41.21
682.458	30.9421
685.833	46.294
689.207	90.0576
692.582	62.5225
695.957	103.251
699.332	113.064
702.707	79.9831
706.082	60.1204
709.456	43.5789
712.831	50.3384
716.206	48.4568
719.581	27.1668
722.956	49.9431
726.331	58.8921
729.705	34.9614
733.08	5.53955
736.455	45.5435
739.83	35.6636
743.205	11.8013
746.579	22.7444
749.954	54.6184
753.329	35.3655
756.704	50.8442
760.079	27.9722
763.453	45.2192
766.828	12.7197
770.203	14.5032
773.578	34.6165
776.953	57.521
780.328	34.2744
783.702	17.1111
787.077	6.32886
790.452	32.7825
793.827	55.1777
797.202	37.5798
800.577	7.96118
803.951	35.9036
807.326	37.9407
810.701	7.32251
814.076	25.4185
817.451	51.0784
820.825	15.3267
824.2	29.6736
827.575	44.1951
830.95	36.4644
834.325	50.7715
837.699	65.1257
841.074	30.6555
844.449	11.377
847.824	30.8767
851.199	51.7644
854.574	40.273
857.948	33.2595
861.323	54.6865
864.698	56.5613
868.073	34.1758
871.448	50.0056
874.822	55.9299
878.197	38.9438
881.572	20.4905
884.947	8.86523
888.322	5.45459
891.697	38.1638
895.071	25.9565
898.446	45.8989
901.821	7.07397
905.196	3.97339
908.571	8.23877
911.946	31.3757
915.32	26.2495
918.695	42.9714
922.07	91.082
925.445	75.3269
928.82	151.73
932.194	131.64
935.569	160.769
938.944	160.163
942.319	79.644
945.694	34.8843
949.068	34.4524
952.443	30.6414
955.818	64.9407
959.193	37.9292
962.568	43.2595
965.943	8.79614
969.317	17.2935
972.692	36.0659
976.067	40.6536
979.442	63.9275
982.817	15.5035
986.192	37.1785
989.566	29.3442
992.941	30.0617
996.316	25.119
999.691	51.629
1003.07	16.5195
1006.44	24.2646
1009.82	16.5792
1013.19	63.4218
1016.57	12.2311
1019.94	21.5452
1023.32	40.3897
1026.69	88.6049
1030.06	77.6974
1033.44	80.9412
1036.81	32.6963
1040.19	22.3663
1043.56	43.8621
1046.94	41.1005
1050.31	65.1427
1053.69	124.701
1057.06	83.1397
1060.44	43.4907
1063.81	21.1335
1067.19	43.1161
1070.56	11.9199
1073.94	54.1136
1077.31	19.3477
1080.69	16.0187
1084.06	4.57703
1087.44	9.65552
1090.81	50.426
1094.19	8.15088
1097.56	73.1764
1100.93	99.835
1104.31	88.7777
1107.68	109.654
1111.06	66.6677
1114.43	48.2744
1117.81	63.33
1121.18	0.490234
1124.56	58.9635
1127.93	45.1909
1131.31	39.9111
1134.68	69.0842
1138.06	6.02002
1141.43	52.1633
1144.81	11.47
1148.18	52.3567
1151.56	51.7262
1154.93	6.37964
1158.31	47.26
1161.68	76.3185
1165.06	69.3909
1168.43	52.595
1171.81	28.844
1175.18	70.5264
1178.56	68.6246
1181.93	76.6714
1185.31	26.4666
1188.68	26.7217
1192.06	27.2199
1195.43	69.5987
1198.81	60.0196
1202.18	50.6216
1205.56	61.7036
1208.93	52.0967
1212.3	57.8052
1215.68	22.0172
1219.05	46.7042
1222.43	1.53455
1225.8	43.3878
1229.18	47.7676
1232.55	58.2263
1235.93	17.603
1239.3	27.3801
1242.68	10.7964
1246.05	12.6404
1249.43	26.3945
1252.8	34.8708
1256.18	16.9694
1259.55	52.5126
1262.93	31.243
1266.3	33.825
1269.68	16.3827
1273.05	45.1174
1276.43	34.4134
1279.8	31.6422
1283.18	30.2338
1286.55	30.7422
1289.92	10.8956
