Measurement: Raman, 780 nm, unoriented, Raman Data Processed
Mineral: Krennerite
Rruff sample: R060138
Ideal chemistry: Au_3_AgTe_8_
Locality: Strong mine, Cripple Creek, Teller County, Colorado, USA
Source: University of Arizona Mineral Museum
Description: Gray metallic prismatic crystal, striated parallel to [001]
Measured chemistry: (Au_0.87_Ag_0.13_)_Î£=1_Te_2.00_
Raman shift (cm-1)	intensity
119.988	0
123.363	4.17887
126.738	4.05216
130.113	4.86776
133.487	5.36858
136.862	10.3191
140.237	13.1686
143.612	11.7615
146.987	6.66613
150.362	2.08131
153.736	0.821375
157.111	0.037754
160.486	0.07826
163.861	0.304373
167.236	0.035954
170.61	0.19025
173.985	0.073048
177.36	0.647351
180.735	0.841353
184.11	1.5423
187.484	1.79564
190.859	2.45384
194.234	2.87238
197.609	3.37391
200.984	3.48686
204.358	3.17317
207.733	3.70581
211.108	3.70842
214.483	3.94196
217.858	4.08784
221.233	3.48988
224.607	3.62077
227.982	3.61366
231.357	2.92371
234.732	3.35252
238.107	4.01348
241.482	4.76951
244.856	4.75446
248.231	4.42678
251.606	2.8873
254.981	2.26469
258.356	1.51873
261.73	1.53014
265.105	1.09146
268.48	0.950806
271.855	0.899001
275.23	0.862841
278.604	0.827619
281.979	0.155321
285.354	0.306539
288.729	0.42571
292.104	0.117703
295.478	0.511655
298.853	0.278061
302.228	0.714837
305.603	0.269655
308.978	0.241017
312.353	0.575059
315.727	0.364395
319.102	0.029948
322.477	0.004805
325.852	0.194894
329.227	0.224705
332.601	0.614392
335.976	0.683758
339.351	0.332345
342.726	0.491667
346.101	0.2743
349.476	0.260062
352.85	0.051433
356.225	0.109673
359.6	0.270155
362.975	0.47892
366.35	0.586537
369.724	0.577054
373.099	0.487621
376.474	0.216248
379.849	0.562484
383.224	0.092678
386.599	0.03771
389.973	0.274479
393.348	0.088918
396.723	0.725207
400.098	0.387252
403.473	0.208916
406.847	0.103943
410.222	0.053389
413.597	0.037487
416.972	0.56526
420.347	0.235178
423.721	0.634484
427.096	0.434567
430.471	0.274232
433.846	0.462964
437.221	0.681121
440.596	0.269551
443.97	0.591299
447.345	0.303971
450.72	0.597154
454.095	0.296696
457.47	0.727607
460.844	0.754904
464.219	0.877121
467.594	0.468287
470.969	0.05318
474.344	0.498426
477.719	0.139734
481.093	0.47955
484.468	0.332836
487.843	0.335602
491.218	0.103992
494.592	0.692769
497.967	0.352478
501.342	0.435809
504.717	0.041862
508.092	0.420051
511.467	0.709104
514.841	0.220977
518.216	0.344868
521.591	0.195567
524.966	0.137157
528.341	0.144182
531.716	0.567718
535.09	0.186483
538.465	0.39975
541.84	0.221231
545.215	0.480305
548.59	0.527215
551.964	0.668001
555.339	0.631559
558.714	0.188325
562.089	0.59233
565.464	0.086461
568.838	0.675224
572.213	0.472229
575.588	0.772841
578.963	0.678729
582.338	0.367013
585.712	0.431174
589.087	0.349122
592.462	0.172285
595.837	0.854202
599.212	0.520286
602.587	0.126079
605.961	0.670388
609.336	0.243963
612.711	0.617691
616.086	0.420552
619.461	0.204988
622.836	0.229747
626.21	0.473192
629.585	0.097356
632.96	0.554901
636.335	0.540987
639.71	0.726806
643.084	0.91795
646.459	0.269117
649.834	0.041226
653.209	0.094771
656.584	0.663614
659.958	0.629358
663.333	0.538244
666.708	0.499367
670.083	0.28235
673.458	0.322318
676.832	0.090782
680.207	0.428014
683.582	0.082335
686.957	0.457474
690.332	0.031285
693.707	0.049552
697.081	0.464859
700.456	0.059184
703.831	0.329276
707.206	0.413357
710.581	0.476709
713.955	0.336536
717.33	0.444322
720.705	0.017059
724.08	0.227954
727.455	0.342311
730.83	0.245719
734.204	0.398423
737.579	0.568785
740.954	0.653149
744.329	0.09147
747.704	0.314589
751.078	0.126235
754.453	0.070759
757.828	0.093732
761.203	0.332652
764.578	0.500091
767.952	0.242839
771.327	0.076956
774.702	0.225973
778.077	0.839458
781.452	0.11559
784.827	0.639402
788.201	0.45386
791.576	0.791362
794.951	0.312553
798.326	0.774444
801.701	1.05237
805.075	0.725569
808.45	0.882969
811.825	0.748209
815.2	0.858351
818.575	0.952877
821.949	0.163345
825.324	0.894472
828.699	1.02115
832.074	1.2088
835.449	1.24267
838.824	1.49468
842.198	1.11356
845.573	1.10179
848.948	1.11882
852.323	0.878664
855.698	1.22533
859.072	0.977787
862.447	1.49636
865.822	1.23425
869.197	0.773066
872.572	1.16239
875.947	0.75675
879.321	0.950738
882.696	0.808986
886.071	0.821126
889.446	0.505903
892.821	1.03381
896.195	0.375298
899.57	0.624172
902.945	0.518345
906.32	0.758525
909.695	0.385418
913.069	0.1523
916.444	0.800734
919.819	0.235417
923.194	0.35947
926.569	0.373718
929.944	0.234829
933.318	0.501904
936.693	0.262461
940.068	0.758731
943.443	0.364694
946.818	0.757621
950.192	0.162523
953.567	0.900429
956.942	0.705552
960.317	1.112
963.692	0.471562
967.067	0.742045
970.441	0.517729
973.816	0.683477
977.191	0.836354
980.566	0.765196
983.941	0.306254
987.315	0.553306
990.69	0.791923
994.065	0.618989
997.44	1.03864
1000.82	0.671239
1004.19	0.664056
1007.56	0.584348
1010.94	0.310729
1014.31	0.612558
1017.69	0.528841
1021.06	0.828888
1024.44	0.084498
1027.81	0.391885
1031.19	0.565052
1034.56	0.025442
1037.94	0.122654
1041.31	0.520209
1044.69	0.871477
1048.06	0.529053
1051.44	0.786204
1054.81	0.232685
1058.19	0.932342
1061.56	0.799063
1064.94	0.274982
1068.31	0.852866
1071.69	0.540934
1075.06	0.51856
1078.43	0.501701
1081.81	0.094529
1085.18	0.439413
1088.56	0.624411
1091.93	0.065062
1095.31	0.667356
1098.68	0.629474
1102.06	0.066637
1105.43	0.274757
1108.81	0.581491
1112.18	0.224796
1115.56	0.823092
1118.93	0.024568
1122.31	0.565928
1125.68	0.220981
1129.06	0.606545
1132.43	0.471081
1135.81	0.046376
1139.18	0.500561
1142.56	0.520912
1145.93	0.267571
1149.31	0.398408
1152.68	0.811825
1156.06	1.01824
1159.43	0.452751
1162.81	0.545218
1166.18	0.603457
1169.56	0.488152
1172.93	0.456465
1176.31	0.978724
1179.68	0.286754
1183.06	0.109548
1186.43	0.227235
1189.8	0.524278
1193.18	0.448346
1196.55	0.016811
1199.93	0.312133
1203.3	0.799444
1206.68	0.358844
1210.05	0.599586
1213.43	0.49366
1216.8	1.08035
1220.18	0.426882
1223.55	0.635375
1226.93	0.610985
1230.3	0.348562
1233.68	0.524879
1237.05	0.601899
1240.43	0.606454
1243.8	0.320982
1247.18	1.14845
1250.55	0.522764
1253.93	0.779863
1257.3	0.931273
1260.67	0.349478
1264.05	0.182109
1267.42	0.149401
1270.8	1.0035
1274.17	0.714391
1277.55	0.784357
1280.92	0.594941
1284.3	0.550712
