Measurement: Raman, 532 nm, unoriented, Raman Data Processed
Mineral: Krupkaite
Rruff sample: R061038
Ideal chemistry: Cu^1+^Pb^2+^Bi^3+^_3_S^2-^_6_
Locality: Vysna Boca, Slovakia
Source: Michael Scott
Description: Silver metallic stringers associated with orange siderite and white quartz
Measured chemistry: Pb_1.00_Cu_1.00_Bi_3.00_S_6.00_
Raman shift (cm-1)	intensity
177.688	0
180.581	0.097382
183.474	0.649681
186.366	1.64992
189.259	0.297648
192.152	2.17054
195.044	0.174793
197.937	0.52346
200.83	0.802432
203.722	0.324249
206.615	1.58423
209.508	1.46492
212.401	1.10832
215.293	3.05101
218.186	2.13763
221.079	1.78847
223.971	1.65665
226.864	2.12639
229.757	3.67193
232.649	4.40552
235.542	4.6125
238.435	5.04678
241.328	5.50072
244.22	6.21091
247.113	7.60397
250.006	8.90067
252.898	9.43057
255.791	10.5486
258.684	11.4699
261.577	12.3245
264.469	10.5724
267.362	9.57302
270.255	8.35948
273.147	6.78175
276.04	5.55507
278.933	3.95582
281.825	3.59715
284.718	3.57705
287.611	2.83046
290.503	1.99625
293.396	1.2312
296.289	1.07807
299.182	0.85931
302.074	0.663617
304.967	1.54888
307.86	1.0494
310.752	0.642143
313.645	0.251554
316.538	0.334719
319.43	0.530454
322.323	0.750039
325.216	0.266465
328.109	0.092128
331.001	0.079879
333.894	0.908535
336.787	0.416552
339.679	0.919631
342.572	0.877812
345.465	0.96605
348.358	0.144728
351.25	0.435554
354.143	1.06728
357.036	0.301044
359.928	1.15928
362.821	1.05968
365.714	1.8553
368.606	0.630495
371.499	0.564714
374.392	1.23441
377.284	0.821423
380.177	1.22081
383.07	0.627517
385.963	0.109724
388.855	0.87004
391.748	0.763236
394.641	0.839394
397.533	0.822845
400.426	1.08408
403.319	0.57656
406.212	1.00145
409.104	1.04461
411.997	1.24923
414.89	1.25693
417.782	0.79322
420.675	0.932418
423.568	1.01019
426.46	0.464681
429.353	1.01331
432.246	1.34699
435.139	0.78974
438.031	1.73765
440.924	0.573981
443.817	1.24799
446.709	0.068263
449.602	1.21434
452.495	0.805577
455.387	1.07431
458.28	0.627928
461.173	0.980993
464.065	0.703824
466.958	0.575494
469.851	0.631303
472.744	0.943558
475.636	0.510809
478.529	0.297271
481.422	0.830673
484.314	1.54549
487.207	1.08743
490.1	0.0459
492.993	0.079792
495.885	0.122563
498.778	0.20742
501.671	0.380419
504.563	0.71404
507.456	0.664682
510.349	0.878675
513.241	0.067994
516.134	0.744546
519.027	0.734695
521.919	0.949226
524.812	0.430643
527.705	0.785105
530.598	0.458863
533.49	0.060018
536.383	0.199633
539.276	1.49721
542.168	1.80364
545.061	0.406362
547.954	0.871208
550.846	0.598968
553.739	0.9803
556.632	0.103487
559.525	0.842917
562.417	1.44394
565.31	0.695409
568.203	0.147517
571.095	0.931917
573.988	0.222235
576.881	0.84271
579.774	0.258467
582.666	0.901989
585.559	1.07991
588.452	0.530894
591.344	1.1794
594.237	0.734329
597.13	0.097833
600.022	0.825594
602.915	0.761722
605.808	0.094948
608.7	0.137424
611.593	0.628906
614.486	0.869017
617.379	0.402129
620.271	1.41208
623.164	0.840734
626.057	0.34959
628.949	0.315743
631.842	1.0613
634.735	0.826432
637.627	0.598672
640.52	0.727663
643.413	0.978754
646.306	1.23754
649.198	0.273108
652.091	0.707602
654.984	1.01215
657.876	1.94681
660.769	0.040412
663.662	0.835526
666.554	0.466428
669.447	1.07776
672.34	0.897918
675.232	0.325183
678.125	1.56888
681.018	0.741664
683.911	1.13668
686.803	0.874841
689.696	0.829942
692.589	0.256875
695.481	0.903039
698.374	0.521679
701.267	0.564587
704.159	0.800054
707.052	0.550951
709.945	0.773787
712.838	0.544134
715.73	0.566416
718.623	1.28886
721.516	1.36789
724.408	1.45099
727.301	0.502335
730.194	1.50249
733.087	0.826953
735.979	0.38793
738.872	0.085192
741.765	0.250201
744.657	1.00154
747.55	0.947442
750.443	0.089617
753.335	0.38068
756.228	0.903675
759.121	0.629597
762.014	0.562778
764.906	0.309942
767.799	0.161901
770.692	0.656116
773.584	0.960953
776.477	0.877909
779.37	0.797195
782.263	1.08302
785.155	0.369009
788.048	0.576281
790.941	0.484551
793.833	0.042281
796.726	0.961077
799.619	0.250047
802.511	0.263551
805.404	0.290858
808.297	0.600233
811.189	0.787421
814.082	0.249023
816.975	1.06569
819.868	1.34661
822.76	0.582287
825.653	0.68429
828.546	0.387472
831.438	0.880883
834.331	1.07877
837.224	1.04496
840.116	0.201119
843.009	0.851763
845.902	0.434609
848.795	0.599131
851.687	1.34319
854.58	1.00797
857.473	1.03281
860.365	1.04136
863.258	1.32618
866.151	1.29676
869.043	0.354005
871.936	0.981258
874.829	1.02217
877.722	0.115245
880.614	1.56175
883.507	0.347835
886.4	0.647338
889.292	0.60802
892.185	1.04937
895.078	0.266947
897.971	0.709993
900.863	0.508277
903.756	0.685426
906.649	1.1563
909.541	0.689949
912.434	0.787412
915.327	0.352953
918.219	1.02024
921.112	0.756222
924.005	1.08583
926.898	0.937599
929.79	0.595754
932.683	0.962005
935.576	0.286455
938.468	0.540212
941.361	0.552191
944.254	0.734978
947.146	0.101988
950.039	0.410014
952.932	1.15969
955.824	0.508422
958.717	0.921695
961.61	0.934492
964.503	0.528928
967.395	0.409358
970.288	0.622487
973.181	0.175115
976.073	0.191475
978.966	0.411489
981.859	0.477832
984.751	0.344076
987.644	1.17489
990.537	0.26368
993.43	1.23998
996.322	1.25323
999.215	0.373033
1002.11	1.64069
1005	0.572827
1007.89	1.08303
1010.79	0.829172
1013.68	1.12806
1016.57	0.816337
1019.46	1.41473
1022.36	0.86467
1025.25	1.25077
1028.14	0.406732
1031.04	0.546628
1033.93	0.621192
1036.82	0.317996
1039.71	0.655222
1042.61	1.40331
1045.5	0.498159
1048.39	0.875247
1051.28	0.042939
1054.18	0.643273
1057.07	0.420495
1059.96	0.865483
1062.85	0.621503
1065.75	0.656656
1068.64	0.340894
1071.53	0.718618
1074.42	1.55625
1077.32	0.617709
1080.21	1.33648
1083.1	0.896544
1086	1.47964
1088.89	1.13308
1091.78	0.879214
1094.67	0.464568
1097.57	0.29641
1100.46	0.471871
1103.35	0.317968
1106.24	0.366822
1109.14	0.563397
1112.03	0.378121
1114.92	0.527915
1117.82	0.902748
1120.71	1.21039
1123.6	0.377919
1126.49	0.119904
1129.39	0.594202
1132.28	0.180076
1135.17	1.07956
1138.07	1.0391
1140.96	1.04205
1143.85	1.40352
1146.74	1.33243
1149.63	1.06891
1152.53	0.853971
1155.42	0.546666
1158.31	0.74451
1161.21	0.380604
1164.1	0.754043
1166.99	0.410597
1169.88	0.347278
1172.78	0.83051
1175.67	0.984322
1178.56	1.18599
1181.45	0.69818
1184.35	0.376093
1187.24	0.919001
1190.13	0.684058
1193.03	0.674494
1195.92	0.271748
1198.81	0.865033
1201.7	0.196365
1204.6	1.12278
1207.49	0.366141
1210.38	0.749249
1213.28	0.60992
1216.17	1.33845
1219.06	0.352191
1221.95	1.10456
1224.85	0.583112
1227.74	1.36007
1230.63	1.06833
1233.52	0.293046
1236.42	0.568432
1239.31	0.4244
1242.2	0.870927
1245.09	0.407752
1247.99	1.14671
1250.88	1.12176
1253.77	0.198602
1256.66	0.811222
1259.56	1.00245
1262.45	1.06588
1265.34	0.810648
1268.24	0.209038
1271.13	0.552924
1274.02	0.373509
1276.91	0.435581
1279.81	0.348297
