Measurement: Raman, 785 nm, unoriented, Raman Data Processed
Mineral: Krupkaite
Rruff sample: R070310
Ideal chemistry: Cu^1+^Pb^2+^Bi^3+^_3_S^2-^_6_
Locality: MaGruder Peak Quadrangle, near Goldfield, Esmerelda County, Nevada, USA
Source: James Shigley
Description: Acicular metallic golden crystal with blue iridescence, embedded in quartz. Space group determined in order to help with the identification.
Measured chemistry: Pb_1.00_(Cu_0.99_Zn_0.01_)_Σ=1_(Bi_2.84_Pb_0.16_)_Σ=3_S_6.00_
Raman shift (cm-1)	intensity
156.696	0
159.589	49.0541
162.481	171.046
165.374	63.6258
168.267	66.6948
171.16	75.4819
174.052	90.8321
176.945	63.7495
179.838	3.97516
182.73	5.01721
185.623	12.0723
188.516	26.2754
191.408	1.04157
194.301	36.4122
197.194	20.3654
200.087	29.0171
202.979	56.4888
205.872	69.5838
208.765	41.6707
211.657	60.4949
214.55	93.5721
217.443	89.6501
220.335	106.951
223.228	137.215
226.121	142.45
229.013	120.644
231.906	124.966
234.799	174.969
237.692	208.179
240.584	236.146
243.477	270.038
246.37	335.506
249.262	380.228
252.155	443.249
255.048	460.016
257.941	479.94
260.833	455.227
263.726	393.616
266.619	352.814
269.511	300.589
272.404	254.805
275.297	224.747
278.19	168.152
281.082	137.322
283.975	117.507
286.868	77.9753
289.76	62.1165
292.653	50.6261
295.546	16.1977
298.438	11.9607
301.331	15.2932
304.224	7.36316
307.116	12.3855
310.009	5.21448
312.902	6.59955
315.795	2.08316
318.687	6.83142
321.58	13.2464
324.473	4.69839
327.365	1.6376
330.258	10.3586
333.151	3.64395
336.043	18.8066
338.936	6.78201
341.829	0.081665
344.721	22.3205
347.614	32.3484
350.507	20.5804
353.4	16.8888
356.292	17.3515
359.185	13.0853
362.078	7.23775
364.97	11.6246
367.863	14.2416
370.756	13.3268
373.649	3.87148
376.541	9.01067
379.434	24.1334
382.327	23.461
385.219	8.82167
388.112	30.3198
391.005	16.9227
393.897	7.04523
396.79	11.1275
399.683	6.24439
402.575	0.679214
405.468	3.98169
408.361	3.49074
411.254	7.9691
414.146	13.9425
417.039	11.3009
419.932	10.9218
422.824	10.627
425.717	9.01477
428.61	15.7495
431.502	8.99478
434.395	6.69438
437.288	4.86694
440.181	1.06676
443.073	1.29558
445.966	3.08456
448.859	5.74822
451.751	6.80926
454.644	8.8817
457.537	4.67825
460.43	3.47729
463.322	4.43282
466.215	10.3157
469.108	7.54274
472	4.90379
474.893	12.0705
477.786	6.99095
480.678	1.95328
483.571	3.50734
486.464	5.65654
489.356	5.84888
492.249	12.7939
495.142	2.30513
498.035	7.29286
500.927	9.49931
503.82	3.96698
506.713	6.91034
509.605	13.0652
512.498	9.92795
515.391	13.3356
518.284	9.02295
521.176	2.17575
524.069	6.55238
526.962	15.4199
529.854	7.61377
532.747	14.5974
535.64	3.68153
538.533	2.40655
541.425	5.75899
544.318	13.7372
547.211	3.8017
550.103	7.30269
552.996	4.46225
555.889	13.385
558.781	2.05424
561.674	5.3007
564.567	19.9822
567.459	8.28174
570.352	0.96933
573.245	0.150101
576.138	21.0953
579.03	11.1077
581.923	11.9283
584.816	9.60764
587.708	15.2225
590.601	3.42448
593.494	15.0779
596.386	8.19521
599.279	19.4285
602.172	16.38
605.064	13.6313
607.957	12.456
610.85	10.0369
613.743	13.7632
616.635	7.75949
619.528	2.22433
622.421	16.2777
625.313	4.59077
628.206	12.3043
631.099	11.6776
633.991	8.65848
636.884	7.11528
639.777	25.5063
642.67	14.6469
645.562	2.30948
648.455	4.47021
651.348	11.8629
654.24	10.3833
657.133	11.2186
660.026	13.1863
662.918	11.047
665.811	9.61529
668.704	8.59792
671.597	19.3504
674.489	7.86595
677.382	4.25923
680.275	6.4558
683.167	13.1394
686.06	15.2046
688.953	16.1756
691.846	1.60156
694.738	0.375
697.631	5.2226
700.524	2.9274
703.416	11.6988
706.309	11.1184
709.202	9.02673
712.094	15.5531
714.987	3.97002
717.88	8.7883
720.773	17.116
723.665	7.40445
726.558	6.00488
729.451	26.0612
732.343	18.6006
735.236	8.44624
738.129	0.169128
741.021	6.19989
743.914	0.617691
746.807	9.96776
749.699	8.47014
752.592	13.9731
755.485	13.4012
758.378	22.9463
761.27	10.8593
764.163	19.6351
767.056	2.37706
769.948	2.23731
772.841	8.79037
775.734	3.02371
778.626	0.503296
781.519	8.25627
784.412	2.76997
787.305	1.11079
790.197	6.25806
793.09	6.65832
795.983	9.19928
798.875	2.75232
801.768	18.1496
804.661	12.8047
807.553	16.433
810.446	0.455063
813.339	15.1192
816.232	0.616714
819.124	11.0443
822.017	10.7937
824.91	12.6136
827.802	5.43593
830.695	15.4865
833.588	11.3366
836.481	7.78175
839.373	6.63527
842.266	18.8986
845.159	16.971
848.051	16.2
850.944	11.1091
853.837	4.5013
856.729	3.30101
859.622	9.67436
862.515	19.5303
865.408	5.95335
868.3	7.56271
871.193	1.16338
874.086	24.424
876.978	14.7881
879.871	15.4805
882.764	9.12328
885.656	6.36504
888.549	6.86145
891.442	12.6157
894.335	5.2948
897.227	5.77306
900.12	9.62721
903.013	9.05205
905.905	11.0169
908.798	7.35175
911.691	3.89482
914.583	11.232
917.476	24.0618
920.369	1.51607
923.261	17.401
926.154	0.606995
929.047	3.65155
931.94	9.21931
934.832	6.33025
937.725	10.3923
940.618	1.97655
943.51	10.6461
946.403	8.81311
949.296	12.763
952.188	19.6153
955.081	18.2519
957.974	3.41164
960.867	3.45412
963.759	11.0825
966.652	18.4128
969.545	15.0666
972.437	12.0983
975.33	12.9504
978.223	14.1098
981.115	17.8587
984.008	14.4203
986.901	8.42389
989.794	19.1841
992.686	5.49269
995.579	14.2224
998.472	14.2514
1001.36	3.11198
1004.26	14.1492
1007.15	6.72087
1010.04	9.9113
1012.93	17.9438
1015.83	8.80377
1018.72	8.13852
1021.61	1.00314
1024.51	14.0218
1027.4	14.8086
1030.29	9.52461
1033.18	11.8983
1036.08	18.1363
1038.97	21.923
1041.86	13.2708
1044.76	15.2864
1047.65	19.4955
1050.54	1.33675
1053.43	5.05489
1056.33	8.96641
1059.22	23.0431
1062.11	21.1223
1065	11.2382
1067.9	1.87672
1070.79	8.64238
1073.68	16.1805
1076.58	19.3831
1079.47	7.92909
1082.36	7.72525
1085.25	16.4302
1088.14	11.3529
1091.04	5.3916
1093.93	2.55539
1096.82	18.5711
1099.72	1.98418
1102.61	16.2006
1105.5	10.6903
1108.39	26.1679
1111.29	5.05553
1114.18	21.7308
1117.07	7.29459
1119.96	12.9689
1122.86	1.79373
1125.75	9.12053
1128.64	9.01547
1131.54	17.3163
1134.43	12.839
1137.32	9.92183
1140.21	5.93343
1143.11	21.1519
1146	12.3899
1148.89	11.0912
1151.79	5.1654
1154.68	18.3288
1157.57	16.779
1160.46	13.2065
1163.36	1.18512
1166.25	7.89233
1169.14	13.1033
1172.03	12.3775
1174.93	9.95258
1177.82	1.67749
1180.71	22.716
1183.6	17.5567
1186.5	11.8193
1189.39	15.706
1192.28	21.2047
1195.17	13.417
1198.07	8.31908
1200.96	2.07785
1203.85	2.36137
1206.75	11.4051
1209.64	4.94112
1212.53	8.06079
1215.42	7.49309
1218.32	9.17372
1221.21	10.7716
1224.1	14.1435
1226.99	3.97624
1229.89	18.525
1232.78	7.01753
1235.67	0.91481
1238.57	7.82491
1241.46	7.19424
