Measurement: Raman, 780 nm, unoriented, Raman Data Processed
Mineral: Krupkaite
Rruff sample: R061038
Ideal chemistry: Cu^1+^Pb^2+^Bi^3+^_3_S^2-^_6_
Locality: Vysna Boca, Slovakia
Source: Michael Scott
Description: Silver metallic stringers associated with orange siderite and white quartz
Measured chemistry: Pb_1.00_Cu_1.00_Bi_3.00_S_6.00_
Raman shift (cm-1)	intensity
174.965	0
177.858	0.220648
180.751	0.454893
183.643	0.099264
186.536	0.980909
189.429	1.02897
192.322	2.54816
195.214	0.648289
198.107	1.2073
201	2.0278
203.892	2.4188
206.785	3.31306
209.678	4.30542
212.571	4.6742
215.463	5.54757
218.356	5.68517
221.249	5.85934
224.141	5.98181
227.034	6.28554
229.927	7.2054
232.819	8.17155
235.712	8.31918
238.605	9.43639
241.498	9.67045
244.39	10.4098
247.283	11.7125
250.176	12.1094
253.068	13.0089
255.961	13.153
258.854	12.7751
261.746	12.7474
264.639	10.5726
267.532	10.0623
270.425	9.1196
273.317	6.41799
276.21	5.30368
279.103	3.66429
281.995	3.00496
284.888	3.15357
287.781	2.90611
290.673	1.90662
293.566	1.10743
296.459	0.740194
299.351	0.898718
302.244	0.651911
305.137	1.10261
308.03	0.706141
310.922	0.729932
313.815	0.526492
316.708	0.091244
319.6	0.127476
322.493	1.08413
325.386	0.009629
328.279	0.158486
331.171	0.033088
334.064	0.676967
336.957	0.046517
339.849	0.522456
342.742	0.811897
345.635	0.72561
348.527	0.020765
351.42	0.776982
354.313	0.632451
357.205	0.316826
360.098	1.1175
362.991	0.955867
365.884	0.758036
368.776	1.1304
371.669	0.75325
374.562	0.749249
377.454	0.958867
380.347	1.40201
383.24	1.03753
386.132	0.138733
389.025	0.531136
391.918	0.571438
394.81	0.91256
397.703	0.956682
400.596	0.625487
403.489	1.21529
406.381	0.068425
409.274	1.21199
412.167	0.367086
415.059	1.34066
417.952	1.1414
420.845	0.4304
423.738	0.721428
426.63	0.277133
429.523	0.999568
432.416	0.461264
435.308	0.791804
438.201	1.39254
441.094	1.0996
443.986	0.882145
446.879	0.380032
449.772	0.739368
452.665	0.507621
455.557	1.16597
458.45	0.758188
461.343	0.076252
464.235	0.884351
467.128	0.362032
470.021	0.749827
472.913	0.602331
475.806	0.328589
478.699	0.659961
481.592	0.959815
484.484	0.648884
487.377	1.26058
490.27	0.585608
493.162	0.38992
496.055	0.473531
498.948	1.04401
501.841	0.397617
504.733	0.771964
507.626	0.642372
510.519	0.832018
513.411	0.609544
516.304	0.685418
519.197	0.095439
522.089	0.013867
524.982	0.632782
527.875	1.02973
530.768	0.501624
533.66	0.322383
536.553	0.268326
539.446	0.706427
542.338	0.446681
545.231	0.733928
548.124	0.285658
551.016	0.488937
553.909	0.069576
556.802	0.806744
559.694	0.944385
562.587	0.295662
565.48	0.17743
568.373	0.829071
571.265	0.337438
574.158	1.05847
577.051	0.028192
579.943	1.12316
582.836	0.620958
585.729	0.61741
588.621	0.870126
591.514	1.65262
594.407	0.179383
597.299	1.03139
600.192	1.03357
603.085	0.492247
605.978	0.220283
608.87	0.251988
611.763	0.58125
614.656	0.376825
617.548	0.760865
620.441	0.797529
623.334	0.051643
626.226	0.249739
629.119	0.988363
632.012	0.783526
634.905	0.342384
637.797	1.14133
640.69	1.19617
643.583	1.1675
646.475	0.017302
649.368	1.21474
652.261	1.36453
655.154	1.58683
658.046	0.019893
660.939	0.826374
663.832	0.208838
666.724	0.94423
669.617	0.989274
672.51	0.086495
675.402	0.713547
678.295	0.901673
681.188	1.12281
684.081	0.768118
686.973	0.726626
689.866	0.043761
692.759	0.752743
695.651	0.184523
698.544	0.423844
701.437	0.488778
704.329	0.222302
707.222	0.71991
710.115	0.317989
713.008	1.30365
715.9	0.876836
718.793	0.657149
721.686	0.65239
724.578	0.60607
727.471	0.134888
730.364	0.933724
733.256	0.28839
736.149	0.343635
739.042	0.567663
741.934	0.503155
744.827	1.25647
747.72	0.899072
750.613	0.395186
753.505	0.523041
756.398	0.770904
759.291	0.699208
762.183	0.92358
765.076	0.692657
767.969	0.81123
770.861	0.580241
773.754	0.389299
776.647	0.868676
779.54	0.46426
782.432	0.715277
785.325	0.513314
788.218	0.107128
791.11	0.699513
794.003	0.113099
796.896	0.633919
799.788	0.137421
802.681	0.438356
805.574	0.656253
808.467	0.101584
811.359	1.04591
814.252	1.12387
817.145	0.309746
820.037	0.710866
822.93	0.323478
825.823	0.751166
828.716	0.853247
831.608	1.10296
834.501	0.721433
837.394	0.451303
840.286	0.576277
843.179	1.4068
846.072	1.51506
848.964	0.768633
851.857	1.07923
854.75	0.430858
857.643	1.3833
860.535	0.999863
863.428	0.237847
866.321	0.118192
869.213	0.818809
872.106	1.1007
874.999	1.06964
877.891	0.84303
880.784	0.38617
883.677	1.2222
886.569	0.865117
889.462	0.793974
892.355	0.627872
895.248	0.1091
898.14	0.848502
901.033	0.771401
903.926	0.580782
906.818	0.621222
909.711	0.588974
912.604	0.342002
915.496	0.994869
918.389	0.773783
921.282	0.250418
924.175	0.794704
927.067	0.353686
929.96	0.474019
932.853	0.504538
935.745	0.881129
938.638	0.189528
941.531	0.412724
944.423	1.17737
947.316	0.15107
950.209	0.685771
953.102	0.890099
955.994	0.671503
958.887	0.206585
961.78	0.305146
964.672	0.136326
967.565	0.608917
970.458	0.387177
973.351	0.252702
976.243	0.436779
979.136	1.45347
982.029	0.875538
984.921	0.515005
987.814	0.890044
990.707	0.94786
993.599	1.63452
996.492	0.710241
999.385	0.808633
1002.28	1.08054
1005.17	0.158673
1008.06	1.07361
1010.96	1.60655
1013.85	0.843308
1016.74	0.239364
1019.63	0.626986
1022.53	0.092621
1025.42	0.413081
1028.31	0.430594
1031.2	1.49733
1034.1	1.07424
1036.99	0.608536
1039.88	0.391425
1042.78	0.927941
1045.67	0.404016
1048.56	0.964386
1051.45	0.950693
1054.35	0.67129
1057.24	0.364523
1060.13	0.842151
1063.02	1.38708
1065.92	0.697127
1068.81	0.845462
1071.7	0.543266
1074.6	0.704464
1077.49	0.759716
1080.38	0.71302
1083.27	0.772908
1086.17	0.6619
1089.06	0.409555
1091.95	0.936307
1094.84	1.42351
1097.74	1.01516
1100.63	0.827587
1103.52	0.112104
1106.41	1.241
1109.31	1.25851
1112.2	0.895394
1115.09	0.712426
1117.98	0.056106
1120.88	0.675861
1123.77	0.605763
1126.66	0.435672
1129.56	1.62886
1132.45	0.815644
1135.34	0.975419
1138.23	1.17948
1141.13	0.756938
1144.02	1.08515
1146.91	0.076199
1149.81	0.86815
1152.7	0.724842
1155.59	0.135298
1158.48	0.338335
1161.38	0.972638
1164.27	0.902484
1167.16	0.772818
1170.05	0.101665
1172.95	1.1678
1175.84	0.190062
1178.73	0.293414
1181.62	0.636885
1184.52	0.621578
1187.41	0.164778
1190.3	1.42035
1193.2	0.906216
1196.09	1.35864
1198.98	1.0582
1201.87	1.13458
1204.77	0.196337
1207.66	0.607735
1210.55	0.85642
1213.44	0.806165
1216.34	0.786974
1219.23	0.925957
1222.12	1.1372
1225.02	0.904351
1227.91	0.025223
1230.8	1.03103
1233.69	1.21928
1236.59	0.881985
1239.48	0.571871
1242.37	0.972044
1245.26	1.17613
1248.16	0.421601
1251.05	0.46261
1253.94	0.700266
1256.84	0.398784
1259.73	0.883179
1262.62	1.26334
1265.51	0.835757
1268.41	0.648524
1271.3	0.350396
1274.19	0.063155
1277.08	0
