Measurement: Raman, 532 nm, unoriented, Raman Data Processed
Mineral: Krupkaite
Rruff sample: R100098
Ideal chemistry: Cu^1+^Pb^2+^Bi^3+^_3_S^2-^_6_
Locality: Julcani District, Peru
Source: Peter Megaw
Description: Bladed steel-gray metallic crystals with blue irridescence
Raman shift (cm-1)	intensity
163.774	0
166.667	0.364941
169.559	1.19981
172.452	2.34526
175.345	2.46409
178.237	3.53269
181.13	3.51515
184.023	4.71407
186.916	3.62329
189.808	3.92297
192.701	1.82949
195.594	2.40829
198.486	2.675
201.379	2.91212
204.272	3.94766
207.164	2.5658
210.057	6.68401
212.95	5.92047
215.843	4.14192
218.735	3.19483
221.628	4.85861
224.521	3.40803
227.413	5.02568
230.306	3.70298
233.199	4.80482
236.091	5.16845
238.984	7.16196
241.877	6.33619
244.769	8.92412
247.662	10.0069
250.555	10.713
253.448	12.7209
256.34	14.0713
259.233	16.2358
262.126	13.5824
265.018	15.2719
267.911	12.6901
270.804	9.82241
273.697	8.5087
276.589	4.8268
279.482	6.01202
282.375	4.5079
285.267	0.808983
288.16	1.12536
291.053	2.42385
293.945	0.131939
296.838	0.003273
299.731	2.27321
302.623	0.47683
305.516	1.18568
308.409	0.451488
311.302	1.62487
314.194	1.34829
317.087	0.721272
319.98	2.49161
322.872	0.888557
325.765	1.8992
328.658	0.489143
331.55	0.929417
334.443	0.360462
337.336	2.38132
340.229	2.97434
343.121	1.39765
346.014	4.26744
348.907	2.16733
351.799	1.96942
354.692	4.014
357.585	3.48941
360.478	4.45633
363.37	4.44463
366.263	3.83646
369.156	1.50789
372.048	2.88345
374.941	6.06438
377.834	4.48707
380.726	3.91628
383.619	4.95923
386.512	4.66902
389.404	1.13169
392.297	1.89784
395.19	0.95789
398.083	1.9629
400.975	1.6289
403.868	0.723495
406.761	2.58981
409.653	2.67293
412.546	1.63318
415.439	0.49588
418.332	2.07814
421.224	2.78796
424.117	0.908707
427.01	2.59152
429.902	4.31167
432.795	3.26884
435.688	2.1115
438.58	1.57682
441.473	5.38885
444.366	4.69949
447.259	4.27877
450.151	3.28998
453.044	5.80795
455.937	5.54731
458.829	7.1464
461.722	6.22892
464.615	8.44157
467.507	8.06893
470.4	6.73477
473.293	8.32658
476.185	8.74714
479.078	9.8895
481.971	9.91771
484.864	9.46364
487.756	8.21151
490.649	10.7179
493.542	7.08626
496.434	7.41486
499.327	8.21971
502.22	5.81587
505.113	7.43634
508.005	5.90879
510.898	5.75074
513.791	5.48943
516.683	2.74127
519.576	1.9982
522.469	2.33695
525.361	2.97363
528.254	0.891308
531.147	3.77614
534.04	0.512234
536.932	2.97854
539.825	3.73394
542.718	2.53884
545.61	1.82911
548.503	1.54554
551.396	2.19771
554.288	1.52057
557.181	0.34058
560.074	1.37984
562.967	0.329651
565.859	1.19072
568.752	2.12504
571.645	3.26254
574.537	0.629944
577.43	2.93434
580.323	1.69426
583.216	2.33268
586.108	1.92276
589.001	4.04739
591.894	2.42567
594.786	3.03263
597.679	4.49187
600.572	3.72258
603.464	2.92229
606.357	3.33437
609.25	3.54564
612.142	2.34122
615.035	0.045471
617.928	1.56422
620.821	3.31782
623.713	2.7307
626.606	3.94992
629.499	1.63219
632.391	2.48778
635.284	1.32972
638.177	2.12493
641.069	0.984463
643.962	0.032001
646.855	0.017532
649.747	0.707424
652.64	2.17218
655.533	1.19313
658.426	1.27471
661.318	0.780186
664.211	1.08133
667.104	2.35294
669.996	2.74656
672.889	0.391571
675.782	2.01161
678.674	2.02202
681.567	2.59763
684.46	3.55615
687.353	0.874928
690.245	1.24245
693.138	2.68121
696.031	1.68271
698.923	4.71697
701.816	3.50927
704.709	2.0987
707.601	3.30128
710.494	4.3741
713.387	4.42896
716.28	3.60826
719.172	5.55054
722.065	3.87429
724.958	5.12902
727.85	3.463
730.743	3.18898
733.636	2.54982
736.529	2.35391
739.421	1.56958
742.314	1.51534
745.207	1.69185
748.099	0.15155
750.992	1.0901
753.885	0.337669
756.777	0.153603
759.67	1.52065
762.563	1.829
765.456	0.181892
768.348	2.5297
771.241	0.299889
774.134	0.531548
777.026	0.929947
779.919	0.606812
782.812	1.81564
785.704	3.29782
788.597	0.042519
791.49	2.96093
794.383	1.26991
797.275	2.95189
800.168	0.887001
803.061	2.47964
805.953	2.26923
808.846	4.6812
811.739	3.89443
814.631	3.79248
817.524	1.8603
820.417	1.34933
823.309	2.03709
826.202	3.14733
829.095	2.43166
831.988	1.49729
834.88	0.58522
837.773	1.37447
840.666	3.15719
843.558	0.597519
846.451	3.93451
849.344	3.77848
852.236	3.05709
855.129	4.67284
858.022	3.58401
860.915	3.45392
863.807	1.63946
866.7	2.36363
869.593	1.98047
872.485	2.74385
875.378	1.0102
878.271	0.3018
881.163	1.73737
884.056	2.59559
886.949	1.3175
889.842	2.94554
892.734	1.94074
895.627	3.81237
898.52	0.153725
901.412	0.194153
904.305	2.28677
907.198	1.16272
910.091	1.00478
912.983	2.46282
915.876	0.658752
918.769	5.08458
921.661	3.15257
924.554	5.16272
927.447	5.16277
930.339	4.36238
933.232	2.25487
936.125	0.603821
939.018	0.959915
941.91	1.27756
944.803	3.0442
947.696	1.7841
950.588	2.1555
953.481	2.267
956.374	1.53093
959.266	3.5117
962.159	3.98613
965.052	1.86673
967.944	1.31675
970.837	1.61184
973.73	0.795937
976.623	4.61608
979.515	1.43201
982.408	0.556976
985.301	3.74905
988.193	3.33318
991.086	1.83962
993.979	1.81862
996.871	1.68403
999.764	2.03874
1002.66	3.69559
1005.55	1.07774
1008.44	3.15624
1011.34	2.20879
1014.23	0.912376
1017.12	0.784721
1020.01	3.52944
1022.91	2.65017
1025.8	0.971039
1028.69	2.35174
1031.58	2.44559
1034.48	2.39117
1037.37	0.828682
1040.26	4.20944
1043.15	1.49367
1046.05	2.66365
1048.94	0.295311
1051.83	0.785576
1054.73	0.492485
1057.62	2.13609
1060.51	3.3485
1063.4	1.16712
1066.3	1.66026
1069.19	2.11641
1072.08	2.54469
1074.97	1.47485
1077.87	0.290192
1080.76	1.10798
1083.65	3.18586
1086.55	2.46115
1089.44	0.315788
1092.33	1.76422
1095.22	2.30798
1098.12	2.01997
1101.01	1.24967
1103.9	2.06277
1106.79	2.22147
1109.69	1.70834
1112.58	1.66569
1115.47	1.22079
1118.37	2.94249
1121.26	3.51881
1124.15	1.80697
1127.04	2.64866
1129.94	2.30937
1132.83	2.19978
1135.72	0.477409
1138.61	1.24194
1141.51	1.16216
1144.4	1.12087
1147.29	0.870979
1150.18	2.7412
1153.08	0.030838
1155.97	2.93014
1158.86	0.181389
1161.76	2.93388
1164.65	1.67668
1167.54	1.10395
1170.43	2.3226
1173.33	3.47812
1176.22	0.81485
1179.11	2.26523
1182	5.67205
1184.9	1.07539
1187.79	2.71201
1190.68	2.81292
1193.58	1.3239
1196.47	3.23099
1199.36	1.20642
1202.25	3.99728
1205.15	2.46648
1208.04	0.425644
1210.93	1.45563
1213.82	2.42279
1216.72	1.16863
1219.61	2.37656
1222.5	1.95586
1225.39	1.87864
1228.29	3.70193
1231.18	3.79396
1234.07	4.66422
1236.97	2.18537
1239.86	1.45808
1242.75	3.26934
1245.64	4.45584
1248.54	1.70667
1251.43	3.19945
1254.32	4.32584
1257.21	4.07732
1260.11	2.4242
1263	1.95695
1265.89	0.261002
1268.79	2.67133
1271.68	3.15416
1274.57	1.77941
1277.46	0.369942
1280.36	3.26166
1283.25	4.95086
1286.14	3.63225
1289.03	0.731606
1291.93	0.524216
1294.82	1.95387
1297.71	3.0356
1300.61	1.12439
