Measurement: Raman, 532 nm, unoriented, Raman Data Processed
Mineral: Krupkaite
Rruff sample: R070310
Ideal chemistry: Cu^1+^Pb^2+^Bi^3+^_3_S^2-^_6_
Locality: MaGruder Peak Quadrangle, near Goldfield, Esmerelda County, Nevada, USA
Source: James Shigley
Description: Acicular metallic golden crystal with blue iridescence, embedded in quartz. Space group determined in order to help with the identification.
Measured chemistry: Pb_1.00_(Cu_0.99_Zn_0.01_)_Σ=1_(Bi_2.84_Pb_0.16_)_Σ=3_S_6.00_
Raman shift (cm-1)	intensity
151.59	0
154.965	7.0332
158.34	7.60574
161.715	3.12436
165.09	11.1188
168.464	19.699
171.839	28.4457
175.214	22.1733
178.589	33.4216
181.964	39.8212
185.339	53.1464
188.713	67.9702
192.088	36.4544
195.463	52.3441
198.838	51.2001
202.213	72.7416
205.587	74.9039
208.962	89.4892
212.337	83.6041
215.712	86.9154
219.087	120.952
222.462	103.271
225.836	108.055
229.211	110.151
232.586	146.336
235.961	166.461
239.336	173.107
242.71	204.502
246.085	229.05
249.46	255.108
252.835	286.109
256.21	290.675
259.584	271.947
262.959	247.475
266.334	181.182
269.709	165.019
273.084	131.917
276.459	101.977
279.833	68.8918
283.208	72.2136
286.583	40.508
289.958	24.6248
293.333	24.2703
296.707	1.61407
300.082	10.7594
303.457	1.87326
306.832	7.02173
310.207	6.1413
313.582	3.41489
316.956	1.64014
320.331	18.8447
323.706	8.07071
327.081	7.83832
330.456	6.5798
333.83	13.954
337.205	11.7953
340.58	9.14468
343.955	6.33017
347.33	16.2498
350.705	10.1203
354.079	10.7557
357.454	10.6922
360.829	23.2848
364.204	23.3423
367.579	12.1433
370.954	22.4445
374.328	13.4336
377.703	28.0753
381.078	16.4649
384.453	12.312
387.828	20.5239
391.202	5.22998
394.577	17.3838
397.952	13.3546
401.327	7.25546
404.702	25.7818
408.077	6.56677
411.451	17.3226
414.826	14.1854
418.201	22.7346
421.576	12.3131
424.951	12.7162
428.325	9.88367
431.7	30.2082
435.075	8.23791
438.45	20.9654
441.825	11.1275
445.2	17.6488
448.574	7.34091
451.949	1.66779
455.324	7.1348
458.699	6.1958
462.074	14.8302
465.448	28.0154
468.823	24.723
472.198	30.5121
475.573	11.0078
478.948	20.0946
482.322	4.18567
485.697	10.5107
489.072	5.85419
492.447	13.2107
495.822	10.1054
499.197	9.11777
502.571	10.8686
505.946	3.47678
509.321	0.72464
512.696	4.07999
516.071	21.2179
519.446	7.38019
522.82	13.4466
526.195	3.83331
529.57	13.5814
532.945	19.1735
536.32	12.7619
539.694	21.1496
543.069	3.89926
546.444	16.4574
549.819	2.39801
553.194	3.17996
556.568	3.14633
559.943	11.6493
563.318	10.232
566.693	19.5298
570.068	10.9959
573.443	21.0441
576.817	19.2568
580.192	18.4541
583.567	7.19226
586.942	10.8648
590.317	11.8463
593.692	17.5835
597.066	13.6888
600.441	8.67786
603.816	16.986
607.191	0.358002
610.566	6.10016
613.94	4.90628
617.315	0.057037
620.69	2.51282
624.065	10.4246
627.44	9.00552
630.814	9.17908
634.189	15.9847
637.564	13.3375
640.939	9.96057
644.314	6.86441
647.689	4.05655
651.063	12.2145
654.438	16.4639
657.813	8.66983
661.188	17.6668
664.563	11.2043
667.938	5.96185
671.312	1.79437
674.687	0.323425
678.062	5.92456
681.437	15.8168
684.812	12.7283
688.186	1.13623
691.561	9.0235
694.936	19.0591
698.311	16.2223
701.686	10.0491
705.061	1.56436
708.435	8.60245
711.81	5.04477
715.185	14.5904
718.56	12.0691
721.935	12.655
725.309	5.78821
728.684	11.2389
732.059	17.4255
735.434	4.54651
738.809	17.9465
742.183	18.6756
745.558	18.2328
748.933	25.8896
752.308	11.3384
755.683	12.0175
759.058	13.3238
762.432	26.8957
765.807	11.0837
769.182	13.2358
772.557	12.5985
775.932	8.05631
779.307	8.24741
782.681	20.6436
786.056	17.2148
789.431	13.3513
792.806	21.9143
796.181	6.42181
799.555	7.79785
802.93	15.5708
806.305	17.4071
809.68	18.1697
813.055	12.3497
816.429	13.8568
819.804	0.557953
823.179	15.9463
826.554	11.5462
829.929	7.31125
833.304	4.89764
836.678	20.8024
840.053	16.8585
843.428	14.4572
846.803	11.8691
850.178	18.6177
853.553	17.3805
856.927	0.692963
860.302	17.3891
863.677	19.4938
867.052	18.6376
870.427	4.90247
873.801	21.0908
877.176	20.0119
880.551	6.84961
883.926	7.38919
887.301	11.5666
890.676	9.25076
894.05	17.8808
897.425	10.8047
900.8	16.1395
904.175	21.6295
907.55	22.4342
910.924	6.4158
914.299	18.9562
917.674	16.5473
921.049	28.6132
924.424	21.6075
927.798	0.826721
931.173	10.2364
934.548	16.6171
937.923	15.4878
941.298	11.9935
944.673	7.43927
948.047	4.55319
951.422	19.178
954.797	17.8498
958.172	25.4086
961.547	11.8996
964.922	4.91284
968.296	11.5833
971.671	20.2702
975.046	4.02713
978.421	17.9394
981.796	1.98907
985.17	27.0417
988.545	13.8808
991.92	8.70087
995.295	14.3902
998.67	0.848694
1002.04	19.0091
1005.42	12.3557
1008.79	2.21726
1012.17	8.08347
1015.54	16.2964
1018.92	7.04385
1022.29	15.8474
1025.67	13.9016
1029.04	18.0077
1032.42	26.7032
1035.79	11.9698
1039.17	16.4984
1042.54	1.29483
1045.92	10.8772
1049.29	15.5487
1052.67	2.29156
1056.04	10.05
1059.42	17.892
1062.79	2.22632
1066.17	13.3824
1069.54	7.74307
1072.92	17.3477
1076.29	32.3245
1079.66	28.2681
1083.04	9.23187
1086.41	10.6589
1089.79	7.6232
1093.16	12.255
1096.54	16.4862
1099.91	22.018
1103.29	26.5031
1106.66	15.1119
1110.04	20.3132
1113.41	18.0913
1116.79	14.8747
1120.16	24.7834
1123.54	5.46515
1126.91	9.45599
1130.29	26.3024
1133.66	14.0178
1137.04	3.91818
1140.41	7.67661
1143.79	4.84235
1147.16	7.49439
1150.54	18.3695
1153.91	13.4333
1157.29	5.92896
1160.66	22.5641
1164.04	14.6918
1167.41	14.8276
1170.79	13.6913
1174.16	6.63391
1177.54	17.4736
1180.91	0.267548
1184.29	12.5793
1187.66	18.8985
1191.03	1.96912
1194.41	10.2444
1197.78	11.3947
1201.16	7.52631
1204.53	17.93
1207.91	26.576
1211.28	17.7349
1214.66	21.1472
1218.03	13.2361
1221.41	2.58926
1224.78	13.5577
1228.16	18.2544
1231.53	14.0811
1234.91	10.8243
1238.28	8.77057
1241.66	18.9716
1245.03	8.69019
1248.41	14.5215
1251.78	7.92758
1255.16	29.4982
1258.53	21.1376
1261.91	18.8844
1265.28	19.5652
1268.65	9.21097
1272.03	8.76862
1275.4	10.2323
1278.78	21.1942
1282.15	10.949
1285.53	20.0137
1288.9	12.0784
1292.28	16.0313
1295.65	22.1126
1299.03	29.7677
1302.4	18.0838
1305.78	31.6269
1309.15	20.8411
1312.53	26.1888
