Measurement: Raman, 785 nm, unoriented, Raman Data Processed
Mineral: Ktenasite
Rruff sample: R070081
Ideal chemistry: Zn^2+^Cu^2+^_4_(S^6+^O_4_)_2_(OH)_6_6H_2_O
Locality: Amot, Modum, Norway
Source: Bob Jenkins
Description: Radial aggregates of bluish green tabular crystals, associated with colorless tabular gypsum crystals.
Raman shift (cm-1)	intensity
144.452	0
147.344	5.54622
150.237	17.1673
153.13	16.5532
156.023	14.768
158.915	20.7371
161.808	7.44894
164.701	27.636
167.593	22.194
170.486	6.90792
173.379	5.63051
176.271	28.1619
179.164	5.04977
182.057	8.57381
184.949	8.76666
187.842	11.4547
190.735	5.69675
193.627	16.2176
196.52	25.763
199.413	1.32507
202.306	24.6252
205.198	10.3983
208.091	9.85649
210.984	1.62135
213.876	25.4402
216.769	29.7454
219.662	29.7589
222.555	26.0907
225.447	41.6967
228.34	24.5618
231.233	38.7671
234.125	36.2985
237.018	64.7463
239.911	47.1424
242.804	41.7109
245.696	57.0721
248.589	32.6557
251.482	40.2876
254.374	33.0959
257.267	54.3336
260.16	6.03203
263.052	43.4741
265.945	19.0721
268.838	15.3564
271.731	7.56908
274.623	21.6819
277.516	5.89203
280.409	25.9091
283.301	33.2504
286.194	17.0475
289.087	26.9987
291.979	14.3833
294.872	25.7187
297.765	21.0879
300.658	19.6754
303.55	26.7128
306.443	29.6757
309.336	23.0956
312.228	34.751
315.121	11.472
318.014	11.9303
320.906	9.70556
323.799	13.5391
326.692	0.361168
329.584	6.54736
332.477	7.82792
335.37	30.6429
338.262	24.3262
341.155	4.57741
344.048	32.9997
346.941	4.28554
349.833	29.6407
352.726	9.95635
355.619	32.0855
358.511	35.6452
361.404	20.9401
364.297	5.24974
367.19	3.35828
370.082	5.1634
372.975	8.71143
375.868	46.178
378.76	12.4352
381.653	40.8739
384.546	27.5933
387.438	18.2994
390.331	21.8043
393.224	17.2078
396.116	24.8384
399.009	31.5771
401.902	25.062
404.795	37.5247
407.687	30.8296
410.58	11.9946
413.473	7.79404
416.365	21.8944
419.258	2.91244
422.151	21.2942
425.043	20.7046
427.936	26.6235
430.829	52.4179
433.722	37.0189
436.614	56.1222
439.507	64.7194
442.4	48.4854
445.292	60.9089
448.185	60.7922
451.078	55.9672
453.971	58.6456
456.863	59.1586
459.756	50.2935
462.649	47.4873
465.541	35.0211
468.434	25.577
471.327	31.3839
474.219	41.9684
477.112	41.3875
480.005	38.9589
482.898	26.8938
485.79	34.1292
488.683	28.9548
491.576	27.6255
494.468	19.0539
497.361	12.0889
500.254	16.5246
503.147	11.4368
506.039	15.0079
508.932	21.377
511.825	12.3673
514.717	14.8612
517.61	4.53379
520.503	4.32153
523.395	12.7637
526.288	0.787533
529.181	3.61984
532.073	2.69694
534.966	22.1416
537.859	10.9586
540.752	9.03644
543.644	1.89566
546.537	19.0122
549.43	14.6069
552.322	26.6711
555.215	23.8833
558.108	16.8754
561	19.2463
563.893	8.22998
566.786	22.4318
569.678	17.0733
572.571	25.9107
575.464	2.3423
578.357	27.4735
581.249	29.9146
584.142	14.0389
587.035	38.0004
589.927	12.141
592.82	41.7904
595.713	49.4328
598.606	46.407
601.498	31.275
604.391	37.4699
607.284	62.6849
610.176	54.8345
613.069	40.4562
615.962	62.2855
618.854	43.668
621.747	60.0769
624.64	39.7977
627.533	43.9244
630.425	38.9769
633.318	37.0384
636.211	30.0952
639.103	0.950825
641.996	6.09223
644.889	38.5647
647.781	43.519
650.674	17.4135
653.567	19.5343
656.46	11.8747
659.352	21.358
662.245	22.0607
665.138	7.47764
668.03	25.3022
670.923	30.691
673.816	27.2186
676.708	14.3819
679.601	0.741974
682.494	12.59
685.386	1.43402
688.279	17.2917
691.172	10.9807
694.065	14.0777
696.957	8.35907
699.85	3.56113
702.743	25.6849
705.635	31.3661
708.528	17.0311
711.421	21.5274
714.313	22.3171
717.206	44.646
720.099	26.8232
722.992	15.7038
725.884	17.1749
728.777	2.51734
731.67	34.4327
734.562	26.1447
737.455	11.3875
740.348	8.17136
743.24	21.3342
746.133	10.2541
749.026	29.5486
751.919	5.11267
754.811	6.50151
757.704	4.42952
760.597	10.1454
763.489	13.432
766.382	6.83791
769.275	28.9775
772.168	27.5574
775.06	17.7265
777.953	15.473
780.846	39.6288
783.738	25.5187
786.631	19.023
789.524	36.4214
792.416	8.0118
795.309	18.7855
798.202	22.0183
801.095	13.622
803.987	31.6842
806.88	23.9805
809.773	41.8008
812.665	30.5818
815.558	6.38535
818.451	16.0958
821.343	38.8
824.236	29.1879
827.129	2.43814
830.021	21.16
832.914	16.7955
835.807	39.9801
838.7	17.6509
841.592	3.90563
844.485	30.3844
847.378	27.7023
850.27	14.6627
853.163	25.0665
856.056	24.7134
858.948	10.3854
861.841	21.1294
864.734	22.4354
867.627	18.0894
870.519	44.1204
873.412	26.77
876.305	15.4819
879.197	8.21293
882.09	26.3489
884.983	18.135
887.875	25.803
890.768	5.6172
893.661	35.5074
896.554	29.8175
899.446	26.1581
902.339	27.8715
905.232	30.4978
908.125	28.9774
911.017	24.8216
913.91	5.24013
916.803	7.61932
919.695	30.5163
922.588	31.523
925.481	23.2001
928.373	12.9693
931.266	19.0349
934.159	24.2657
937.052	20.3534
939.944	31.2124
942.837	20.6258
945.73	3.10632
948.622	2.56036
951.515	21.4813
954.408	8.87662
957.3	24.4947
960.193	29.9956
963.086	38.9324
965.979	29.7452
968.871	48.1114
971.764	67.1802
974.657	72.8661
977.549	117.214
980.442	158.391
983.335	207.398
986.227	169.272
989.12	195.786
992.013	207.219
994.905	218.892
997.798	196.116
1000.69	136.672
1003.58	97.6104
1006.48	44.7849
1009.37	24.9197
1012.26	30.9662
1015.15	16.2971
1018.05	40.739
1020.94	50.6941
1023.83	8.67233
1026.72	21.2092
1029.62	5.71169
1032.51	4.88553
1035.4	6.27095
1038.3	22.5995
1041.19	54.2739
1044.08	27.7892
1046.97	5.59908
1049.87	20.7539
1052.76	5.11466
1055.65	11.8225
1058.55	26.2456
1061.44	22.672
1064.33	12.0162
1067.22	29.6918
1070.12	8.38065
1073.01	4.26907
1075.9	28.9088
1078.79	26.9287
1081.69	45.098
1084.58	19.3169
1087.47	30.0365
1090.37	7.58299
1093.26	31.1706
1096.15	22.1077
1099.04	44.3887
1101.93	33.7618
1104.83	56.3823
1107.72	42.9206
1110.61	72.9262
1113.51	32.6852
1116.4	57.3109
1119.29	64.4331
1122.18	32.1777
1125.08	55.1245
1127.97	51.1212
1130.86	14.0272
1133.76	57.121
1136.65	41.894
1139.54	47.4735
1142.43	15.9585
1145.33	11.5069
1148.22	53.064
1151.11	20.8729
1154	25.4982
1156.9	40.9591
1159.79	20.3942
1162.68	16.0427
1165.58	11.6438
1168.47	18.6301
1171.36	19.3261
1174.25	20.1134
1177.15	10.1653
1180.04	33.9593
1182.93	26.2354
1185.82	47.0521
1188.72	14.9047
1191.61	34.3992
1194.5	30.9122
1197.39	25.7695
1200.29	31.9618
1203.18	22.6279
1206.07	24.3943
1208.96	9.4438
1211.86	19.3784
1214.75	35.0427
1217.64	41.5134
1220.54	23.9266
1223.43	13.0886
1226.32	19.6465
1229.21	29.1569
1232.11	30.7672
1235	19.7435
1237.89	24.7578
1240.79	14.8288
1243.68	19.2222
