Measurement: Raman, 532 nm, unoriented, Raman Data Processed
Mineral: Kukharenkoite-(Ce)
Rruff sample: R110190
Ideal chemistry: Ba_2_Ce(CO_3_)_3_F
Locality: Demix-Varennes quarry, Saint-Amable sill, Varennes & St-Amable, Lajemmerais RCM, Monteregie, Quebec, Canada
Source: Donald Doell
Description: Radial sprays of white bladed crystals
Measured chemistry: (Ba_1.90_Sr_0.10_)_Σ=2.00_(Ce_0.54_La_0.22_Nd_0.15_Pr_0.06_)_Σ=0.97_(CO_3_)_2.99_F_1.14_
Raman shift (cm-1)	intensity
212.95	0
215.843	17.0615
218.735	13.2622
221.628	12.8281
224.521	26.5176
227.413	6.50586
230.306	4.56055
233.199	22.0107
236.091	42.6343
238.984	41.396
241.877	99.6191
244.769	148.293
247.662	219.988
250.555	276.524
253.448	308.79
256.34	307.044
259.233	295.697
262.126	263.667
265.018	205.98
267.911	172.755
270.804	166.333
273.697	158.166
276.589	148.133
279.482	132.93
282.375	109.728
285.267	57.188
288.16	43.6299
291.053	27.3628
293.945	30.0669
296.838	45.0503
299.731	20.7153
302.623	30.3564
305.516	31.4858
308.409	28.5913
311.302	15.2539
314.194	26.0068
317.087	22.2778
319.98	10.7837
322.872	7.64111
325.765	3.69971
328.658	5.22607
331.55	4.82959
334.443	22.769
337.336	64.7065
340.229	60.3447
343.121	40.7573
346.014	24.5835
348.907	27.2705
351.799	46.9736
354.692	84.2524
357.585	79.5933
360.478	87.2095
363.37	89.4214
366.263	61.0942
369.156	81.4477
372.048	83.3262
374.941	75.8096
377.834	70.7729
380.726	47.979
383.619	28.5254
386.512	57.3057
389.404	7.36621
392.297	1.03857
395.19	3.63818
398.083	2.19385
400.975	11.2788
403.868	21.6895
406.761	38.5947
409.653	49.8008
412.546	43.1592
415.439	47.6807
418.332	34.2695
421.224	13.9209
424.117	13.9722
427.01	31.7061
429.902	42.1748
432.795	32.6348
435.688	33.9644
438.58	36.5215
441.473	21.4082
444.366	14.9482
447.259	40.7153
450.151	38.438
453.044	16.3574
455.937	15.875
458.829	37.1738
461.722	27.2065
464.615	6.64648
467.507	0.461426
470.4	0.540039
473.293	1.38184
476.185	17.8262
479.078	13.0552
481.971	34.6089
484.864	26.937
487.756	41.1431
490.649	50.9453
493.542	51.624
496.434	69.4165
499.327	51.8335
502.22	59.4409
505.113	43.2944
508.005	29.4722
510.898	50.8501
513.791	23.8594
516.683	6.26709
519.576	3.44873
522.469	7.0542
525.361	32.7529
528.254	47.6279
531.147	19.417
534.04	30.7764
536.932	13.5249
539.825	21.9043
542.718	8.85449
545.61	11.2573
548.503	7.9751
551.396	21.7339
554.288	37.5142
557.181	13.5649
560.074	27.4326
562.967	15.749
565.859	10.4536
568.752	1.41211
571.645	0.305176
574.537	13.6006
577.43	20.3398
580.323	55.3296
583.216	46.3999
586.108	25.085
589.001	28.4302
591.894	66.9077
594.786	68.5698
597.679	62.1968
600.572	73.606
603.464	43.2563
606.357	56.5762
609.25	79.9185
612.142	69.4356
615.035	40.1309
617.928	49.3086
620.821	36.3486
623.713	16.5083
626.606	0.130371
629.499	4.92676
632.391	6.05127
635.284	19.4605
638.177	19.2515
641.069	6.51807
643.962	11.562
646.855	15.8887
649.747	1.83984
652.64	6.46777
655.533	26.1743
658.426	33.6069
661.318	44.8818
664.211	24.5474
667.104	25.146
669.996	37.1914
672.889	24.5718
675.782	44.5078
678.674	57.5078
681.567	94.249
684.46	95.3638
687.353	65.1201
690.245	76.3345
693.138	92.6514
696.031	99.8623
698.923	104.678
701.816	151.487
704.709	88.3643
707.601	89.4097
710.494	87.5635
713.387	98.2695
716.28	87.6616
719.172	23.0166
722.065	24.1865
724.958	64.0137
727.85	84.3511
730.743	88.6289
733.636	57.5664
736.529	14.0957
739.421	32.2315
742.314	5.9541
745.207	0.870117
748.099	7.76856
750.992	23.377
753.885	42.7734
756.777	39.5801
759.67	34.1553
762.563	33.6265
765.456	14.0312
768.348	28.7412
771.241	23.5283
774.134	18.0337
777.026	15.8462
779.919	25.5371
782.812	25.4058
785.704	9.78125
788.597	7.88525
791.49	14.3306
794.383	30.8672
797.275	20.124
800.168	24.3667
803.061	9.50977
805.953	11.3345
808.846	57.4087
811.739	34.2178
814.631	39.9282
817.524	33.4473
820.417	42.6543
823.309	30.5029
826.202	0.286621
829.095	8.99756
831.988	15.1128
834.88	6.14356
837.773	1.87598
840.666	4.81494
843.558	8.6582
846.451	25.2344
849.344	20.4561
852.236	40.8882
855.129	57.4863
858.022	69.3765
860.915	58.5195
863.807	60.3618
866.7	32.3486
869.593	26.501
872.485	33.4336
875.378	56.0254
878.271	49.1899
881.163	18.8633
884.056	50.377
886.949	50.7319
889.842	65.9853
892.734	55.3423
895.627	50.7305
898.52	42.7637
901.412	37.9634
904.305	53.147
907.198	46.3364
910.091	69.6499
912.983	53.8618
915.876	53.1045
918.769	69.3159
921.661	28.0825
924.554	31.9575
927.447	22.4868
930.339	35.2222
933.232	16.2822
936.125	8.41992
939.018	13.7783
941.91	1.45654
944.803	14.5986
947.696	35.3159
950.588	28.8076
953.481	41.3994
956.374	11.8955
959.266	8.94678
962.159	28.4165
965.052	46.645
967.944	46.4624
970.837	39.3242
973.73	38.6011
976.623	34.1773
979.515	45.563
982.408	32.2085
985.301	9.82764
988.193	17.6558
991.086	43.6255
993.979	30.8867
996.871	13.9707
999.764	18.8364
1002.66	3.70752
1005.55	14.1343
1008.44	26.4863
1011.34	39.5435
1014.23	4.05371
1017.12	11.1318
1020.01	30.1665
1022.91	23.0225
1025.8	21.231
1028.69	20.8276
1031.58	4.02148
1034.48	22.6523
1037.37	29.2319
1040.26	1.11914
1043.15	0.333496
1046.05	13.6909
1048.94	15.1382
1051.83	14.7095
1054.73	52.4224
1057.62	68.4131
1060.51	74.3081
1063.4	147.285
1066.3	244.778
1069.19	411.286
1072.08	467.179
1074.97	338.734
1077.87	446.702
1080.76	596.425
1083.65	818.207
1086.55	629.162
1089.44	250.39
1092.33	120.81
1095.22	101.428
1098.12	74.6348
1101.01	90.4717
1103.9	62.793
1106.79	58.0684
1109.69	50.1357
1112.58	96.4727
1115.47	89.0176
1118.37	80.918
1121.26	69.2353
1124.15	64.9981
1127.04	50.1221
1129.94	28.1787
1132.83	16.6416
1135.72	32.5029
1138.61	29.9404
1141.51	24.1572
1144.4	28.5713
1147.29	38.6768
1150.18	43.29
1153.08	55.7402
1155.97	22.2441
1158.86	6.30078
1161.76	2.98144
1164.65	19.1816
1167.54	24.0635
1170.43	16.8135
1173.33	2.61035
1176.22	15.6621
1179.11	17.3203
1182	24.4795
1184.9	26.1484
1187.79	20.8711
1190.68	18.9395
1193.58	6.74316
1196.47	14.7529
1199.36	20.4531
1202.25	19.0479
1205.15	34.9375
1208.04	56.6211
1210.93	58.0527
1213.82	57.3994
1216.72	38.0518
1219.61	4.06445
1222.5	18.2549
1225.39	21.9121
1228.29	43.8867
1231.18	31.6816
1234.07	0.124023
1236.97	14.4756
1239.86	16.1807
1242.75	24.082
1245.64	19.5303
1248.54	26.9404
1251.43	29.0713
1254.32	24.7842
1257.21	36.1719
1260.11	51.167
1263	61.0752
1265.89	34.8057
1268.79	44.7217
1271.68	25.1875
1274.57	23.9697
1277.46	21.2432
1280.36	2.62988
1283.25	6.38965
1286.14	12.4004
1289.03	12.499
1291.93	24.7432
1294.82	25.3486
1297.71	15.127
1300.61	18.2637
