Measurement: Raman, 780 nm, unoriented, Raman Data Processed
Mineral: Kunatite
Rruff sample: R120055
Ideal chemistry: Cu^2+^Fe^3+^_2_(P^5+^O_4_)_2_(OH)_2_4H_2_O
Locality: Krasno, Horni Slakov, Bohemia, Czech Republic
Source: William W Pinch
Description: Spherical aggregates of pale green acicular crystals on quartz, associated with triplite
Raman shift (cm-1)	intensity
118.198	0
121.573	6.2606
124.948	13.488
128.322	18.2005
131.697	27.1628
135.072	26.7312
138.447	23.6182
141.822	20.2798
145.197	13.9438
148.571	3.74313
151.946	6.04294
155.321	4.78774
158.696	1.59126
162.071	5.81504
165.446	11.1164
168.82	16.3717
172.195	26.8844
175.57	40.8697
178.945	60.8475
182.32	74.7901
185.694	72.3905
189.069	52.208
192.444	31.6229
195.819	6.74568
199.194	0.574944
202.569	0.768715
205.943	3.64654
209.318	1.12706
212.693	2.10252
216.068	8.45022
219.442	9.18481
222.817	19.2494
226.192	25.2361
229.567	35.3669
232.942	49.472
236.317	72.5594
239.691	94.5459
243.066	102.849
246.441	93.6055
249.816	77.2646
253.191	65.9006
256.565	51.0742
259.94	36.0551
263.315	27.9935
266.69	21.6842
270.065	18.965
273.44	22.8144
276.814	21.8377
280.189	29.2346
283.564	35.3643
286.939	43.3328
290.314	50.4448
293.688	54.0729
297.063	56.6649
300.438	60.5303
303.813	65.177
307.188	69.2257
310.562	73.958
313.937	65.5338
317.312	53.9233
320.687	42.3979
324.062	27.6244
327.437	15.4377
330.811	10.2745
334.186	9.60862
337.561	0.231411
340.936	4.61071
344.311	4.55745
347.685	6.04408
351.06	6.27077
354.435	4.13587
357.81	4.33635
361.185	0.846848
364.56	2.70141
367.934	0.642258
371.309	0.466293
374.684	0.150597
378.059	0.130104
381.434	1.46733
384.808	3.32783
388.183	0.985981
391.558	1.97484
394.933	3.68104
398.308	7.61879
401.683	6.69848
405.057	8.19192
408.432	17.9945
411.807	18.3612
415.182	24.15
418.557	25.683
421.931	26.9714
425.306	36.7045
428.681	39.057
432.056	34.9028
435.431	27.1983
438.805	28.425
442.18	25.7716
445.555	23.5072
448.93	30.9412
452.305	25.8784
455.68	23.1884
459.054	23.6879
462.429	20.8905
465.804	18.6471
469.179	13.9972
472.554	17.9614
475.928	7.34343
479.303	11.6226
482.678	7.56376
486.053	4.99279
489.428	10.6405
492.803	8.31677
496.177	9.58404
499.552	5.30461
502.927	6.60335
506.302	8.21691
509.677	4.86863
513.051	5.63372
516.426	5.21569
519.801	1.77354
523.176	0.592884
526.551	0.089222
529.926	2.60839
533.3	2.32608
536.675	4.87261
540.05	2.46169
543.425	3.82729
546.799	8.05466
550.174	12.3013
553.549	10.965
556.924	7.88324
560.299	8.49137
563.674	15.0139
567.048	16.5332
570.423	17.5248
573.798	21.1669
577.173	14.1281
580.548	4.21825
583.923	7.61792
587.297	3.23262
590.672	2.70847
594.047	5.80589
597.422	4.14484
600.797	2.10818
604.171	3.65247
607.546	3.27307
610.921	4.35057
614.296	5.2316
617.671	0.071672
621.045	0.102649
624.42	1.17448
627.795	2.92286
631.17	0.539673
634.545	0.997713
637.919	3.66543
641.294	5.37163
644.669	3.92065
648.044	3.46287
651.419	3.76
654.794	6.24397
658.168	0.599366
661.543	3.38296
664.918	9.39081
668.293	3.60491
671.668	2.92993
675.043	6.86169
678.417	7.2944
681.792	6.59762
685.167	4.24091
688.542	10.1779
691.917	3.83385
695.291	1.56317
698.666	6.49707
702.041	2.26417
705.416	3.75056
708.791	6.25598
712.165	5.12703
715.54	6.49601
718.915	2.90834
722.29	7.48487
725.665	5.05993
729.039	4.25753
732.414	0.528591
735.789	5.91513
739.164	0.698071
742.539	3.56449
745.914	1.63413
749.288	0.453552
752.663	5.30806
756.038	0.7299
759.413	5.77733
762.788	7.43309
766.163	2.66966
769.537	0.502598
772.912	5.83057
776.287	4.66879
779.662	4.18433
783.037	7.13306
786.411	0.565171
789.786	1.17042
793.161	2.73422
796.536	2.80186
799.911	1.80906
803.285	8.48138
806.66	8.67612
810.035	6.02912
813.41	12.2483
816.785	16.6608
820.159	20.904
823.534	21.8613
826.909	25.0391
830.284	30.6957
833.659	25.9516
837.034	27.6818
840.408	28.9382
843.783	31.1347
847.158	27.2099
850.533	26.6516
853.908	16.7234
857.283	15.9567
860.657	9.04798
864.032	7.37061
867.407	1.48083
870.782	1.05235
874.157	1.00507
877.531	3.3476
880.906	1.4744
884.281	3.81674
887.656	4.73923
891.031	7.67816
894.405	9.80866
897.78	9.83882
901.155	3.82004
904.53	3.21217
907.905	2.61689
911.279	4.96588
914.654	1.80788
918.029	9.67025
921.404	13.0457
924.779	18.4416
928.154	20.8729
931.528	16.3676
934.903	10.9699
938.278	5.64609
941.653	14.8386
945.028	8.06555
948.403	4.85801
951.777	0.979877
955.152	0.685946
958.527	3.85084
961.902	10.8616
965.277	15.2724
968.651	26.5182
972.026	28.3798
975.401	24.4852
978.776	19.771
982.151	16.8071
985.525	19.0506
988.9	17.9752
992.275	14.0931
995.65	16.1029
999.025	16.5897
1002.4	13.1827
1005.77	10.4052
1009.15	5.07408
1012.52	10.7071
1015.9	5.11029
1019.27	7.85375
1022.65	7.76
1026.02	13.8907
1029.4	13.295
1032.77	8.20844
1036.15	4.56902
1039.52	9.15995
1042.9	6.52925
1046.27	1.2652
1049.65	3.5531
1053.02	0.514743
1056.4	4.20185
1059.77	4.82867
1063.15	7.7429
1066.52	2.6668
1069.9	2.60825
1073.27	7.55004
1076.64	2.74304
1080.02	2.87411
1083.39	0.706231
1086.77	4.03425
1090.14	0.340689
1093.52	7.01648
1096.89	1.69844
1100.27	0.13305
1103.64	2.47156
1107.02	3.97259
1110.39	3.61474
1113.77	7.40853
1117.14	7.40126
1120.52	8.54756
1123.89	8.54843
1127.27	7.08881
1130.64	8.94654
1134.02	11.0668
1137.39	4.32495
1140.77	4.88772
1144.14	1.13868
1147.52	2.08534
1150.89	3.54938
1154.27	2.47781
1157.64	4.90083
1161.02	1.04982
1164.39	1.61115
1167.77	4.25329
1171.14	3.15151
1174.52	4.51941
1177.89	0.304018
1181.27	1.36356
1184.64	5.93064
1188.01	4.74047
1191.39	8.16138
1194.76	1.96986
1198.14	1.26752
1201.51	3.54976
1204.89	1.15155
1208.26	2.14735
1211.64	3.22471
1215.01	3.35839
1218.39	6.28084
1221.76	6.51206
1225.14	6.06715
1228.51	6.9974
1231.89	2.00702
1235.26	4.87347
1238.64	7.50333
1242.01	6.94725
1245.39	9.91858
1248.76	9.42842
1252.14	0.00891
1255.51	7.73055
1258.88	9.55642
1262.26	3.29693
1265.63	1.46879
1269.01	9.12941
1272.38	5.85708
1275.76	2.0652
1279.13	1.74542
1282.51	0.089798
