Measurement: Raman, 532 nm, unoriented, Raman Data Processed
Mineral: Kupletskite-(Cs)
Rruff sample: R060929
Ideal chemistry: Cs^1+^_2_NaMn^2+^_7_Ti^4+^_2_(Si_4_O_12_)_2_O_2_(OH)_4_F
Locality: Dara-i-Pioz, Garm region, Tajikistan
Source: Michael Scott
Description: Brownish yellow foliated sample associated with white quartz and dark aegirine.
Raman shift (cm-1)	intensity
167.806	0
170.699	18.0576
173.592	24.5819
176.484	1.71454
179.377	36.4286
182.27	17.4287
185.162	41.6061
188.055	2.31771
190.948	13.6173
193.84	21.9762
196.733	26.5714
199.626	42.5494
202.519	29.8978
205.411	12.4283
208.304	42.2665
211.197	36.8873
214.089	23.4435
216.982	16.9017
219.875	35.6359
222.767	11.4342
225.66	34.2741
228.553	12.7622
231.446	12.3393
234.338	17.0291
237.231	23.9171
240.124	12.3639
243.016	12.8237
245.909	33.4372
248.802	12.242
251.694	48.09
254.587	41.9237
257.48	40.2939
260.373	23.0448
263.265	12.4014
266.158	16.5237
269.051	15.7687
271.943	25.8464
274.836	28.0109
277.729	33.2373
280.621	43.1018
283.514	66.809
286.407	50.1709
289.3	25.2881
292.192	41.2278
295.085	32.8317
297.978	15.5252
300.87	23.1085
303.763	31.9336
306.656	33.4218
309.548	45.8787
312.441	21.5854
315.334	8.7309
318.226	30.6713
321.119	10.8187
324.012	20.0989
326.904	5.14101
329.797	16.6881
332.69	7.11224
335.583	26.7758
338.475	19.1225
341.368	35.9674
344.261	3.35162
347.153	7.61612
350.046	23.0363
352.939	14.3716
355.832	25.9256
358.724	15.3377
361.617	13.6438
364.51	1.25107
367.402	9.18407
370.295	17.3537
373.188	29.7422
376.08	32.1132
378.973	21.9662
381.866	3.98749
384.759	16.405
387.651	24.9888
390.544	13.783
393.437	6.53317
396.329	27.2553
399.222	18.7384
402.115	11.4639
405.007	22.8388
407.9	28.1207
410.793	23.0179
413.685	7.16299
416.578	27.0307
419.471	24.8366
422.364	37.4288
425.256	44.0137
428.149	9.8004
431.042	4.55942
433.934	31.9156
436.827	37.5504
439.72	29.1572
442.612	26.6227
445.505	39.0822
448.398	28.5752
451.291	32.4202
454.183	34.8818
457.076	3.77321
459.969	20.6366
462.861	40.4326
465.754	45.0358
468.647	63.466
471.539	20.0217
474.432	33.6277
477.325	20.5638
480.217	50.7558
483.11	34.5385
486.003	94.3674
488.896	37.3892
491.788	29.4157
494.681	22.7178
497.574	39.7146
500.466	51.2467
503.359	18.1659
506.252	35.497
509.144	65.4975
512.037	29.8558
514.93	12.2763
517.823	16.9611
520.715	0.177277
523.608	21.7352
526.501	0.419983
529.393	22.7376
532.286	12.7477
535.179	6.12299
538.072	7.07364
540.964	2.7525
543.857	10.4677
546.75	1.56171
549.642	29.8464
552.535	2.51569
555.428	31.2367
558.32	32.8663
561.213	45.4366
564.106	52.2168
566.998	43.9389
569.891	33.8185
572.784	55.7499
575.677	56.6742
578.569	41.0207
581.462	42.7819
584.355	41.3768
587.247	68.0802
590.14	55.7871
593.033	35.8768
595.925	55.5125
598.818	66.8924
601.711	76.1636
604.604	66.9321
607.496	69.8793
610.389	83.7922
613.282	88.6038
616.174	120.222
619.067	106.184
621.96	113.349
624.852	142.646
627.745	134.168
630.638	128.586
633.53	159.654
636.423	121.916
639.316	135.808
642.209	140.439
645.101	170.646
647.994	124.927
650.887	133.468
653.779	148.973
656.672	92.6633
659.565	168.133
662.457	106.718
665.35	103.247
668.243	82.8119
671.135	95.3453
674.028	61.8019
676.921	56.3188
679.814	31.507
682.706	53.9082
685.599	43.62
688.492	11.6632
691.384	59.8717
694.277	30.1359
697.17	29.6453
700.062	47.4496
702.955	4.71298
705.848	12.3241
708.741	7.42779
711.633	27.3385
714.526	0.994873
717.419	21.3619
720.311	10.6641
723.204	7.99585
726.097	24.0181
728.99	10.9805
731.882	10.109
734.775	26.8024
737.668	6.29791
740.56	10.1289
743.453	7.91054
746.346	21.2381
749.238	11.332
752.131	19.8956
755.024	29.7356
757.916	31.4261
760.809	0.910034
763.702	9.08202
766.595	9.4691
769.487	31.7399
772.38	7.36909
775.273	24.0863
778.165	45.4092
781.058	46.5455
783.951	36.4243
786.843	28.2139
789.736	32.614
792.629	25.5697
795.521	33.571
798.414	23.312
801.307	46.5048
804.2	3.32465
807.092	5.34112
809.985	12.2676
812.878	27.1829
815.77	54.1942
818.663	5.17473
821.556	19.5908
824.448	44.2907
827.341	24.265
830.234	44.6515
833.127	37.6186
836.019	25.5418
838.912	16.641
841.805	18.7953
844.697	4.33998
847.59	25.9109
850.483	13.851
853.375	32.4943
856.268	37.1871
859.161	49.5162
862.053	10.8522
864.946	22.7366
867.839	16.5648
870.732	7.83592
873.624	29.9082
876.517	4.51161
879.41	16.3811
882.302	36.7833
885.195	16.3538
888.088	23.3291
890.981	45.0028
893.873	39.7231
896.766	2.1635
899.659	16.2073
902.551	22.502
905.444	10.4505
908.337	45.0364
911.229	34.605
914.122	55.609
917.015	3.40013
919.908	44.2944
922.8	22.0026
925.693	45.8894
928.586	16.2817
931.478	16.9194
934.371	36.6351
937.264	35.126
940.156	22.4778
943.049	18.5195
945.942	37.6916
948.835	28.0197
951.727	20.3578
954.62	19.4837
957.513	19.1715
960.405	35.7546
963.298	39.3891
966.191	8.2683
969.083	20.1788
971.976	36.1852
974.869	41.1783
977.761	7.74544
980.654	2.88791
983.547	22.7044
986.439	4.71097
989.332	19.7797
992.225	15.5644
995.118	4.39562
998.01	55.3518
1000.9	38.1816
1003.8	10.1064
1006.69	18.2965
1009.58	42.6569
1012.47	8.7003
1015.37	9.19405
1018.26	14.1108
1021.15	0.33136
1024.05	41.2348
1026.94	34.7558
1029.83	50.4703
1032.72	40.7693
1035.62	51.7856
1038.51	44.4551
1041.4	23.4545
1044.29	57.5222
1047.19	6.14271
1050.08	37.2331
1052.97	13.5746
1055.86	28.6717
1058.76	44.4464
1061.65	26.5862
1064.54	3.89659
1067.43	19.8594
1070.33	17.3032
1073.22	34.9967
1076.11	1.41968
1079.01	21.0857
1081.9	28.952
1084.79	37.3505
1087.68	7.52922
1090.58	36.1459
1093.47	7.28712
1096.36	34.6003
1099.26	63.0713
1102.15	16.1204
1105.04	35.4105
1107.93	21.2704
1110.83	1.55476
1113.72	30.3005
1116.61	55.8033
1119.5	27.9705
1122.4	34.0781
1125.29	20.4315
1128.18	3.40045
1131.07	34.2365
1133.97	28.3736
1136.86	53.4692
1139.75	33.9985
1142.64	30.0643
1145.54	19.9373
1148.43	19.8387
1151.32	20.6884
1154.22	2.0018
1157.11	24.7187
1160	30.287
1162.89	51.8146
1165.79	17.595
1168.68	27.2362
1171.57	8.70279
1174.46	37.8811
1177.36	24.2225
1180.25	17.8116
1183.14	21.0342
1186.04	23.3813
1188.93	19.3
1191.82	49.0978
1194.71	31.2902
1197.61	38.3436
1200.5	42.7896
1203.39	43.6527
1206.29	22.6746
1209.18	24.3015
1212.07	48.8961
1214.96	32.5466
1217.86	23.2881
1220.75	7.34512
1223.64	33.3676
1226.53	37.5741
1229.43	22.6072
1232.32	50.0596
1235.21	17.9788
1238.1	15.4755
1241	69.4927
1243.89	18.3111
1246.78	37.8593
1249.67	31.4081
1252.57	75.9989
1255.46	1.19339
1258.35	41.8616
1261.25	6.80325
1264.14	28.495
1267.03	6.82919
1269.92	54.6084
1272.82	24.6442
1275.71	39.0845
1278.6	16.6823
1281.49	25.6539
