Measurement: Raman, 514 nm, unoriented, Raman Data Processed
Mineral: Kurnakovite
Rruff sample: R050393
Ideal chemistry: MgB_3_O_3_(OH)_5_5H_2_O
Locality: Kramer deposit, Boron, Kern County, California, USA
Source: Marcus Origlieri
Description: Colorless to gray cleavage fragment
Measured chemistry: Mg_1.00_B_3_O_3_(OH)_5_·5H_2_O ; = lighter phase. The darker phase: (Mg_0.97_Al_0.02_[box]_0.01_)_Σ=1_B_3_O_3_(OH)_5_·5H_2_O ; B not measured but estimated by stoichiometry
Raman shift (cm-1)	intensity
85.009	0
89.193	43.938
93.375	536.688
97.554	1006.65
101.732	2058.56
105.908	1524.51
110.082	1326
114.254	1432.37
118.424	2460.16
122.592	2039.38
126.758	1832.16
130.922	2245.34
135.083	2360.3
139.243	2658.3
143.401	3390.77
147.557	3254.17
151.711	3128.75
155.863	3141.95
160.013	2679.34
164.161	2777.56
168.308	3034.69
172.452	1968.14
176.594	1448.07
180.734	1174.67
184.872	1077.79
189.008	1364.12
193.143	1191.26
197.275	892.004
201.405	552.965
205.534	409.699
209.66	431.322
213.784	456.947
217.907	598.125
222.027	695.031
226.146	1025.63
230.263	1584.87
234.377	1268.72
238.49	897.162
242.601	542.152
246.709	730.42
250.816	926.559
254.921	1079.6
259.024	912.002
263.125	550.531
267.224	297.361
271.321	38.111
275.416	325.715
279.51	363.771
283.601	185.047
287.69	83.803
291.778	160.463
295.863	136.484
299.947	82.936
304.029	94.848
308.108	59.045
312.186	50.441
316.262	15.805
320.336	322.396
324.408	356.459
328.478	493.951
332.546	414.836
336.612	128.088
340.677	202.684
344.739	127.607
348.799	15.801
352.858	127.582
356.915	172.84
360.969	109.58
365.022	85.486
369.073	298.574
373.122	578.838
377.169	954.264
381.215	717.842
385.258	758.57
389.299	637.434
393.339	371.43
397.376	309.545
401.412	309.775
405.446	279.084
409.478	82.58
413.508	39.547
417.536	123.076
421.562	28.852
425.586	65.658
429.609	58.402
433.629	99.504
437.648	66.285
441.665	120.639
445.68	137.312
449.693	74.096
453.704	17.186
457.713	108.49
461.721	325.449
465.726	582.951
469.73	585.166
473.731	213.111
477.731	380.787
481.729	369.521
485.725	181.336
489.72	486.217
493.712	395.215
497.703	488.191
501.691	695.355
505.678	1072.54
509.663	1309.73
513.646	1839
517.627	2007.33
521.607	2212.76
525.584	2641.27
529.56	3241.86
533.534	3389.49
537.506	3571.16
541.476	3547.05
545.444	3526.68
549.41	3439.02
553.375	3718.17
557.337	3704.35
561.298	3076.52
565.257	2024.98
569.214	1057.4
573.17	1047.83
577.123	1153.63
581.075	967.213
585.024	1610.68
588.972	1680.64
592.918	1538.82
596.863	1714.47
600.805	1663.08
604.746	2083.29
608.685	2624
612.621	3453.1
616.557	5116.61
620.49	7504.95
624.421	11005.6
628.351	12822.8
632.279	12196.8
636.205	9147.83
640.129	5669.89
644.051	3914.02
647.972	2428.45
651.89	1742.42
655.807	1181.49
659.722	1008.5
663.636	487.459
667.547	352.389
671.457	631.318
675.365	728.029
679.271	591.57
683.175	460.58
687.077	642.031
690.978	785.574
694.877	871.883
698.774	1013.23
702.669	1233.32
706.562	1378.07
710.454	1109.53
714.344	1503.62
718.232	913.234
722.118	1124.34
726.002	960.027
729.885	1084.41
733.766	1007.96
737.645	837.141
741.522	833.359
745.397	491.564
749.271	482.471
753.143	555.26
757.013	268.338
760.881	140.629
764.748	256.803
768.613	312.957
772.476	14.797
776.337	346.789
780.196	155.789
784.054	84.207
787.91	213.383
791.764	41.375
795.616	11.789
799.467	157.816
803.316	215.23
807.163	37.262
811.008	271.023
814.851	243.645
818.693	104.133
822.533	14.457
826.371	80.477
830.208	42.742
834.042	69.293
837.875	29.02
841.706	30.828
845.536	106.461
849.363	189.777
853.189	384.52
857.013	55.02
860.836	98.734
864.656	79.012
868.475	72.605
872.292	20.941
876.108	365.332
879.922	368.516
883.733	259.723
887.544	326.906
891.352	233.996
895.159	289.996
898.964	7.883
902.767	498.609
906.568	314.199
910.368	523.34
914.166	744.613
917.962	472.379
921.757	409.367
925.55	695.164
929.341	724.156
933.13	998.363
936.918	952.594
940.703	575.461
944.488	677.824
948.27	903.031
952.051	759.125
955.83	518.801
959.607	1004.73
963.383	622.543
967.156	1569.32
970.928	386.93
974.699	343.277
978.468	503.016
982.234	606.48
986	87.242
989.763	165.613
993.525	667.285
997.285	373.039
1001.04	104.02
1004.8	588.207
1008.55	770.566
1012.31	447.746
1016.06	291.387
1019.81	569.672
1023.56	584.031
1027.31	345.199
1031.05	340.016
1034.79	503.539
1038.53	788.391
1042.27	1414.57
1046.01	1210
1049.75	927.402
1053.48	1315.22
1057.22	916.531
1060.95	1118.26
1064.68	1045.93
1068.4	653.938
1072.13	440.789
1075.86	595.758
1079.58	376.805
1083.3	787.113
1087.02	1018.73
1090.74	661.41
1094.45	330.441
1098.17	319.707
1101.88	635.625
1105.59	826.539
1109.3	1091.72
1113.01	749.832
1116.71	756.355
1120.42	771.871
1124.12	895.102
1127.82	373.5
1131.52	738.383
1135.22	282.84
1138.91	136.984
1142.61	317.828
1146.3	415.449
1149.99	716.918
1153.68	404.551
1157.37	265.809
1161.06	196.453
1164.74	423.441
1168.42	401.41
1172.1	300.902
1175.78	164.184
1179.46	220.465
1183.14	151.629
1186.81	211.359
1190.48	298.609
1194.15	612.137
1197.83	132.52
1201.49	455.824
1205.16	0
