Measurement: Raman, 780 nm, unoriented, Raman Data Processed
Mineral: Kushiroite
Rruff sample: R110134
Ideal chemistry: CaAl(AlSi)O_6_
Locality: Synthetic, at 1400 C, 20 kb, 24 hours, and 164 hours
Source: Roberta Fleming
Description: White pressed fragment
Raman shift (cm-1)	intensity
180.795	0
183.688	3.16699
186.581	6.31738
189.473	2.81543
192.366	29.4346
195.259	31.6777
198.151	38.4756
201.044	35.3965
203.937	62.3994
206.829	85.5537
209.722	89.5518
212.615	89.5147
215.507	74.0566
218.4	58.3428
221.293	67.9922
224.186	62.9258
227.078	65.6064
229.971	81.1826
232.864	87.8408
235.756	105.757
238.649	117.458
241.542	118.476
244.435	124.656
247.327	134.714
250.22	82.1318
253.113	72.5508
256.005	29.9854
258.898	37.9053
261.791	36.1299
264.683	43.1484
267.576	39.9522
270.469	41.666
273.361	32.5537
276.254	28.7939
279.147	55.0264
282.04	55.3594
284.932	58.2139
287.825	60.3965
290.718	75.1123
293.61	68.915
296.503	58.7168
299.396	63.333
302.288	42.4395
305.181	34.3994
308.074	17.4082
310.967	11.3711
313.859	7.03418
316.752	4.16504
319.645	9.08887
322.537	0.740234
325.43	16.2402
328.323	9.44531
331.216	7.99512
334.108	26.9668
337.001	59.334
339.894	68.4922
342.786	49.4736
345.679	27.1338
348.572	18.7686
351.464	14.7109
354.357	30.5801
357.25	85.2686
360.142	112.239
363.035	161.569
365.928	189.301
368.821	240.64
371.713	269.789
374.606	220.078
377.499	197.351
380.391	164.48
383.284	146.117
386.177	171.708
389.07	188.143
391.962	162.462
394.855	186.98
397.748	178.894
400.64	197.527
403.533	221.159
406.426	231.998
409.318	219.672
412.211	245.099
415.104	261.466
417.997	244.055
420.889	259.095
423.782	222.632
426.675	196.492
429.567	145.815
432.46	127.945
435.353	87.5527
438.245	73.751
441.138	31.5703
444.031	41.7031
446.923	20.1582
449.816	6.30859
452.709	18.2559
455.602	11.4824
458.494	4.95996
461.387	7.97168
464.28	1.18555
467.172	8.7793
470.065	11.7607
472.958	18.6963
475.851	12.5361
478.743	10.5527
481.636	8.73535
484.529	18.8633
487.421	3.13086
490.314	18.1357
493.207	7.38672
496.099	18.5625
498.992	18.251
501.885	15.6055
504.777	44.2637
507.67	65.8603
510.563	103.938
513.456	118.472
516.348	151.162
519.241	141.217
522.134	130.964
525.026	75.9639
527.919	55.127
530.812	38.9033
533.705	17.4912
536.597	25.3975
539.49	13.0527
542.383	2.26465
545.275	1.20801
548.168	14.251
551.061	24.5371
553.953	26.4453
556.846	29.0176
559.739	23.4883
562.631	15.2588
565.524	34.5684
568.417	35.2764
571.31	32.6807
574.202	20.7285
577.095	34.6748
579.988	23.9678
582.88	18.6172
585.773	24.3613
588.666	19.3828
591.558	31.4502
594.451	26.3105
597.344	15.166
600.237	3.16797
603.129	18.5713
606.022	9.2041
608.915	4.35742
611.807	18.916
614.7	9.47559
617.593	0.47168
620.486	3.16992
623.378	16.8955
626.271	19.4473
629.164	43.6504
632.056	37.916
634.949	74.5625
637.842	91.9609
640.734	129.389
643.627	164.031
646.52	210.658
649.413	250.932
652.305	273.312
655.198	262.344
658.091	250.174
660.983	232.296
663.876	208.845
666.769	203.704
669.661	199.8
672.554	185.554
675.447	174.374
678.34	161.121
681.232	147.585
684.125	132.999
687.018	106.202
689.91	73.7236
692.803	61.8018
695.696	28.2041
698.588	19.7295
701.481	24.1045
704.374	19.1787
707.266	22.1318
710.159	14.916
713.052	0.255859
715.945	4.70312
718.837	8.19922
721.73	4.94629
724.623	3.63769
727.515	15.002
730.408	28.5322
733.301	22.0928
736.193	16.5371
739.086	18.9834
741.979	9.30273
744.872	20.2158
747.764	19.5918
750.657	23.6875
753.55	2.88672
756.442	7.47168
759.335	14.8115
762.228	12.7822
765.12	2.93457
768.013	19.4473
770.906	16.3145
773.799	0.459961
776.691	16.1504
779.584	24.834
782.477	14.7393
785.369	2.7832
788.262	12.6875
791.155	19.4824
794.048	29.4102
796.94	24.4346
799.833	20.498
802.726	5.79688
805.618	36.8984
808.511	33.376
811.404	29.2197
814.296	21.3408
817.189	53.5635
820.082	41.2607
822.975	49.8994
825.867	26.3135
828.76	41.3438
831.653	32.0732
834.545	21.46
837.438	42.0137
840.331	40.1699
843.223	26.9473
846.116	32.2217
849.009	30.2549
851.902	35.7764
854.794	19.3291
857.687	17.7754
860.58	16.9307
863.472	19.3848
866.365	2.56055
869.258	4.63477
872.15	10.249
875.043	22.9844
877.936	6.26953
880.829	2.75293
883.721	17.3691
886.614	21.7637
889.507	0.53125
892.399	19.9199
895.292	15.9326
898.185	2.07031
901.077	16.499
903.97	19.4307
906.863	64.2559
909.756	52.8145
912.648	75.8106
915.541	66.9961
918.434	90.9072
921.326	100.997
924.219	108.993
927.112	119.234
930.005	129.95
932.897	152.19
935.79	156.245
938.683	162.707
941.575	151.95
944.468	149.686
947.361	158.455
950.253	172.506
953.146	183.887
956.039	189.002
958.932	157.292
961.824	154.901
964.717	106.147
967.61	88.6728
970.502	65.6143
973.395	33.3857
976.288	15.5586
979.18	6.02051
982.073	15.8477
984.966	9.36816
987.859	1.92285
990.751	25.8525
993.644	11.4668
996.537	24.9546
999.429	27.4043
1002.32	15.1777
1005.22	13.4692
1008.11	8.46484
1011	17.7637
1013.89	26.0625
1016.78	36.606
1019.68	17.3442
1022.57	17.375
1025.46	30.1221
1028.36	19.3672
1031.25	33.7876
1034.14	28.9009
1037.03	50.9448
1039.93	33.0864
1042.82	11.6719
1045.71	5.68408
1048.61	2.0708
1051.5	5.50586
1054.39	1.42725
1057.28	3.54346
1060.18	1.85547
1063.07	6.35938
1065.96	8.78027
1068.85	4.50098
1071.75	6.75879
1074.64	9.83594
1077.53	18.127
1080.42	9.38184
1083.32	4.09766
1086.21	2.07129
1089.1	23.9834
1092	31.4697
1094.89	45.8838
1097.78	57.6924
1100.67	72.8701
1103.57	95.1797
1106.46	125.815
1109.35	174.613
1112.24	188.951
1115.14	200.417
1118.03	257.967
1120.92	302.351
1123.82	352.398
1126.71	378.907
1129.6	427.967
1132.49	454.451
1135.39	487.276
1138.28	512.356
1141.17	547.388
1144.06	564.124
1146.96	624.833
1149.85	632.255
1152.74	650.935
1155.63	674.567
1158.53	674.943
1161.42	680.675
1164.31	689.703
1167.21	670.308
1170.1	647.959
1172.99	609.621
1175.88	554.358
1178.78	497.684
1181.67	461.273
1184.56	393.309
1187.45	375.427
1190.35	350.365
1193.24	313.431
1196.13	290.05
1199.03	245.929
1201.92	225.605
1204.81	187.708
1207.7	170.073
1210.6	156.273
1213.49	129.138
1216.38	119.005
1219.27	103.192
1222.17	73.3555
1225.06	68.4473
1227.95	50.0156
1230.85	33.1641
1233.74	13.0469
1236.63	18.7285
1239.52	8.29492
1242.42	11.0361
1245.31	16.5381
1248.2	3.03125
1251.09	16.9111
1253.99	3.11621
1256.88	33.4815
1259.77	56.0225
1262.66	83.043
1265.56	73.8691
1268.45	76.4541
1271.34	38.3887
1274.24	32.4912
1277.13	28.751
1280.02	4.74609
1282.91	7.10059
