Measurement: Raman, 532 nm, unoriented, Raman Data Processed
Mineral: Kuzmenkoite-Mn
Rruff sample: R070662
Ideal chemistry: K_4_Mn^2+^_2_Ti^4+^_8_(Si_4_O_12_)_4_(OH,O)_8_10-12H_2_O
Locality: Selsurt Mt, Lovozero Massif, Kola Peninsula, Murmanskaja Oblast', Northern Region, Russia
Source: Michael Scott
Description: Vitreous yellow prismatic crystals associated with natrolite and clinoenstatite.
Raman shift (cm-1)	intensity
132.165	0
135.54	264.904
138.914	55.8145
142.289	93.5254
145.664	97.0332
149.039	36.7832
152.414	193.094
155.788	97.1738
159.163	78.3398
162.538	125.527
165.913	183.406
169.288	197.815
172.663	157.941
176.037	36.043
179.412	75.7129
182.787	97.4727
186.162	166.299
189.537	171.852
192.911	49.5898
196.286	28.418
199.661	312.393
203.036	309.312
206.411	442.353
209.786	428.178
213.16	371.269
216.535	549.748
219.91	376.059
223.285	484.736
226.66	396.232
230.034	310.273
233.409	251.709
236.784	22.1719
240.159	115.805
243.534	2.62305
246.909	29.3379
250.283	192.053
253.658	15.5879
257.033	202.17
260.408	102.387
263.783	57.6055
267.157	102.066
270.532	143.312
273.907	225.566
277.282	54.0586
280.657	88.9492
284.031	66.5059
287.406	97.9824
290.781	291.256
294.156	127.26
297.531	156
300.906	60.8223
304.28	86.7559
307.655	162.674
311.03	171.022
314.405	319.57
317.78	218.244
321.154	432.897
324.529	289.959
327.904	336.812
331.279	374.318
334.654	369.473
338.029	495.416
341.403	488.576
344.778	617.811
348.153	674.852
351.528	565.57
354.903	444.125
358.277	276.037
361.652	551.311
365.027	230.201
368.402	217.096
371.777	8.58203
375.151	63.6191
378.526	46.7734
381.901	65.2695
385.276	46.2773
388.651	123.106
392.026	9.83008
395.4	141.566
398.775	249.584
402.15	258.039
405.525	143.789
408.9	235.315
412.274	270.731
415.649	178.609
419.024	98.9883
422.399	276.078
425.774	262.795
429.149	338.273
432.523	306.139
435.898	460.9
439.273	604.658
442.648	718.699
446.023	601.533
449.397	552.998
452.772	170.865
456.147	83.8379
459.522	43.2559
462.897	81.2168
466.272	216.004
469.646	203.018
473.021	570.869
476.396	811.99
479.771	1337.43
483.146	1952.99
486.52	2358.77
489.895	1863.08
493.27	1157.91
496.645	478.225
500.02	284.269
503.394	2.92969
506.769	295.279
510.144	496.443
513.519	917.129
516.894	1064.13
520.269	1250.84
523.643	1558.5
527.018	1605.54
530.393	1570.86
533.768	1345.28
537.143	1060.22
540.518	690.951
543.892	465.209
547.267	351.746
550.642	236.879
554.017	134.478
557.391	11.9609
560.766	20.3516
564.141	22.1055
567.516	9.07031
570.891	198.348
574.266	1.22266
577.64	48.1445
581.015	118.5
584.39	132.394
587.765	80.1269
591.14	260.894
594.514	61.7793
597.889	92.9785
601.264	93.0215
604.639	88.7012
608.014	84.875
611.389	43.6074
614.763	326.19
618.138	340.857
621.513	344.172
624.888	224.039
628.263	161.059
631.638	272.381
635.012	183.697
638.387	162.016
641.762	325.668
645.137	244.371
648.512	176.856
651.886	199.719
655.261	156.473
658.636	48.1328
662.011	227.684
665.386	93.9336
668.76	229.594
672.135	98.5234
675.51	232.863
678.885	147.422
682.26	123.547
685.635	269.168
689.009	139.754
692.384	75.3516
695.759	155.207
699.134	240.496
702.509	277.715
705.883	17.5391
709.258	118.723
712.633	6.82031
716.008	265
719.383	266.82
722.758	206.367
726.132	201.879
729.507	220.059
732.882	128.949
736.257	160.07
739.632	57.3867
743.006	191.148
746.381	124.559
749.756	50.8906
753.131	118.938
756.506	170.34
759.88	306.762
763.255	25.0273
766.63	2.36328
770.005	131.008
773.38	36.9531
776.755	117.18
780.129	266.582
783.504	227.781
786.879	137.211
790.254	85.2812
793.629	111.766
797.004	204.906
800.378	150.047
803.753	22.4102
807.128	9.73047
810.503	35.3359
813.878	102.332
817.252	56.918
820.627	32.4727
824.002	51.5781
827.377	53.3125
830.752	202.262
834.126	60.1719
837.501	63.5508
840.876	62.6602
844.251	82.1758
847.626	3.60547
851	53.3008
854.375	68.0312
857.75	160.609
861.125	283.328
864.5	397.32
867.875	387.348
871.249	894.094
874.624	1019.57
877.999	1334.59
881.374	1388.52
884.749	1079.77
888.124	1203.06
891.498	857.93
894.873	779.82
898.248	557.68
901.623	595.43
904.998	576.672
908.372	597.316
911.747	565.121
915.122	365.5
918.497	434.746
921.872	631.859
925.246	649.414
928.621	676.273
931.996	761.148
935.371	592.305
938.746	770.805
942.12	868.781
945.495	708.188
948.87	838.445
952.245	804.25
955.62	523.75
958.995	476.449
962.369	251.633
965.744	123.926
969.119	60.7812
972.494	48.875
975.869	43.2773
979.244	116.059
982.618	95.3711
985.993	29.3672
989.368	92.1172
992.743	75.3008
996.118	19.4219
999.492	41.4883
1002.87	156.32
1006.24	214.625
1009.62	204.109
1012.99	72.418
1016.37	95.418
1019.74	102.012
1023.12	272.242
1026.49	107.797
1029.87	11.2461
1033.24	257.691
1036.62	203.539
1039.99	221.859
1043.37	410.012
1046.74	385.992
1050.12	389.273
1053.49	464.785
1056.86	544.918
1060.24	556.156
1063.61	684.707
1066.99	436.996
1070.36	430.625
1073.74	385.238
1077.11	512.242
1080.49	432.715
1083.86	347.824
1087.24	149.641
1090.61	225.723
1093.99	69.3633
1097.36	77.9219
1100.74	257.547
1104.11	191.586
1107.49	90.6914
1110.86	22.3867
1114.24	75.5586
1117.61	136.965
1120.99	204.566
1124.36	118.301
1127.73	66.1172
1131.11	104.375
1134.48	139.441
1137.86	195.211
1141.23	44.8945
1144.61	135.961
1147.98	174.598
1151.36	139.277
1154.73	131.59
1158.11	107.34
1161.48	70.1602
1164.86	151.668
1168.23	275.301
1171.61	162.184
1174.98	346.262
1178.36	216.168
1181.73	273.492
1185.11	184.457
1188.48	60.0117
1191.86	155.769
1195.23	303.539
1198.61	219.949
1201.98	197.703
1205.36	110.961
1208.73	234.231
1212.11	293.473
1215.48	194.648
1218.86	144.949
1222.23	55.6289
1225.61	208.902
1228.98	227.391
1232.36	21.9492
1235.73	35.2031
1239.1	95.8672
1242.48	357.508
1245.85	319.91
1249.23	165.606
1252.6	217.168
1255.98	80.8945
1259.35	83.8867
1262.73	262.18
1266.1	54.3438
1269.48	76.1094
1272.85	36.6406
1276.23	90.9219
1279.6	450.891
1282.98	390.644
1286.35	321.902
1289.73	299.738
1293.1	199.812
1296.48	208.207
1299.85	261.625
1303.23	37.6211
