Measurement: Raman, 780 nm, unoriented, Raman Data Processed
Mineral: Kuzmenkoite-Mn
Rruff sample: R070662
Ideal chemistry: K_4_Mn^2+^_2_Ti^4+^_8_(Si_4_O_12_)_4_(OH,O)_8_10-12H_2_O
Locality: Selsurt Mt, Lovozero Massif, Kola Peninsula, Murmanskaja Oblast', Northern Region, Russia
Source: Michael Scott
Description: Vitreous yellow prismatic crystals associated with natrolite and clinoenstatite.
Raman shift (cm-1)	intensity
95.2395	0
98.6143	153.856
101.989	205.406
105.364	185.269
108.739	17.1387
112.114	94.334
115.488	216.322
118.863	166.412
122.238	410.025
125.613	310.633
128.988	424.445
132.363	683.688
135.737	556.514
139.112	155.016
142.487	98.2656
145.862	20.8301
149.237	26.4883
152.611	61.9863
155.986	238.842
159.361	254.873
162.736	298.164
166.111	316.678
169.486	271.441
172.86	227.488
176.235	236.176
179.61	126.121
182.985	121.514
186.36	67.9805
189.734	83.3496
193.109	211.346
196.484	354.049
199.859	520.006
203.234	681.381
206.608	714.443
209.983	846.426
213.358	826.848
216.733	929.418
220.108	704.961
223.483	619.871
226.857	404.293
230.232	317.719
233.607	133.762
236.982	29.3594
240.357	113.805
243.732	2.78516
247.106	8.125
250.481	51.8086
253.856	6.43164
257.231	60.8496
260.606	178.359
263.98	16.7129
267.355	61.9414
270.73	95.7695
274.105	93.6856
277.48	295.664
280.854	247.519
284.229	279.904
287.604	267.082
290.979	186.838
294.354	166.889
297.729	105.576
301.103	272.307
304.478	220.758
307.853	236.029
311.228	308.565
314.603	274.285
317.978	151.514
321.352	93.3262
324.727	159.49
328.102	201.459
331.477	355.879
334.852	513.297
338.226	620.346
341.601	882.889
344.976	888.346
348.351	1000.02
351.726	1064.61
355.101	829.049
358.475	668.769
361.85	360.342
365.225	238.344
368.6	153.818
371.975	23.5664
375.349	36.832
378.724	8.13672
382.099	37.5918
385.474	46.3125
388.849	8.66016
392.224	216.94
395.598	312.898
398.973	497.785
402.348	651.988
405.723	731.182
409.098	649.381
412.472	523.957
415.847	558.426
419.222	290.723
422.597	395.269
425.972	562.67
429.346	534.469
432.721	891.92
436.096	1114.84
439.471	1329.29
442.846	1280.04
446.221	989.461
449.595	676.719
452.97	286.906
456.345	202.82
459.72	143.565
463.095	11.9473
466.469	117.016
469.844	534.377
473.219	988.227
476.594	1727.29
479.969	2706.29
483.344	3449.03
486.718	3235.52
490.093	2023.78
493.468	1084.86
496.843	503.305
500.218	282.455
503.592	292.708
506.967	361.648
510.342	709.872
513.717	1136.53
517.092	1838.61
520.467	2275.08
523.841	2698.41
527.216	2887.79
530.591	2622.43
533.966	1915.91
537.341	1377.38
540.716	907.953
544.09	573.876
547.465	336.465
550.84	152.774
554.215	110.644
557.59	19.8301
560.964	115.768
564.339	16.7734
567.714	69.0127
571.089	14.5488
574.464	70.0176
577.838	69.3457
581.213	42.1582
584.588	10.6299
587.963	71.2373
591.338	64.9746
594.713	16.0723
598.087	27.4531
601.462	3.81348
604.837	52.2275
608.212	44.4053
611.587	28.5557
614.962	83.3438
618.336	22.9365
621.711	118.166
625.086	40.5654
628.461	106.73
631.836	16.0186
635.21	86.8535
638.585	60.1328
641.96	88.5967
645.335	70.2695
648.71	170.182
652.085	170.783
655.459	144.065
658.834	218.247
662.209	325.87
665.584	238.981
668.959	271.273
672.333	313.184
675.708	261.488
679.083	378.393
682.458	340.08
685.833	248.506
689.207	200.95
692.582	240.417
695.957	181.131
699.332	153.163
702.707	139.514
706.082	131.126
709.456	83.7432
712.831	151.871
716.206	87.7197
719.581	119.761
722.956	201.242
726.331	184.185
729.705	23.1445
733.08	20.4502
736.455	87.0147
739.83	54.7451
743.205	160.015
746.579	151.435
749.954	124.522
753.329	87.7256
756.704	181.324
760.079	127.944
763.453	99.9356
766.828	224.97
770.203	148.178
773.578	22.8613
776.953	43.4688
780.328	146.682
783.702	116.319
787.077	68.8799
790.452	55.169
793.827	49.6338
797.202	5.91894
800.577	40.1709
803.951	19.9736
807.326	25.2578
810.701	18.1455
814.076	3.14356
817.451	12.3193
820.825	16.4082
824.2	31.9268
827.575	14.2676
830.95	13.2744
834.325	7.03906
837.699	26.6221
841.074	88.2793
844.449	125.138
847.824	163.846
851.199	236.548
854.574	278.626
857.948	417.004
861.323	538.299
864.698	866.882
868.073	1276.94
871.448	1834.71
874.822	2417.98
878.197	2750.09
881.572	2721.26
884.947	2321.18
888.322	1766.79
891.697	1396.78
895.071	1211.66
898.446	1081.04
901.821	953.001
905.196	877.17
908.571	823.496
911.946	738.664
915.32	774.477
918.695	726.343
922.07	709.262
925.445	661.523
928.82	612.895
932.194	685.731
935.569	694.827
938.944	774.807
942.319	831.267
945.694	975.981
949.068	898.578
952.443	969.306
955.818	785.129
959.193	586.858
962.568	326.252
965.943	166.93
969.317	28.1035
972.692	13.8613
976.067	78.6016
979.442	10.9951
982.817	35.3301
986.192	63.7197
989.566	58.7373
992.941	8.66797
996.316	23.3135
999.691	53.5713
1003.07	69.1074
1006.44	8.74121
1009.82	55.0342
1013.19	96.4336
1016.57	82.0654
1019.94	159.377
1023.32	121.596
1026.69	218.038
1030.06	272.573
1033.44	289.376
1036.81	324.947
1040.19	384.529
1043.56	437.843
1046.94	666.125
1050.31	723.924
1053.69	831.568
1057.06	954.127
1060.44	939.955
1063.81	837.577
1067.19	842.879
1070.56	511.504
1073.94	401.565
1077.31	388.506
1080.69	334.981
1084.06	203.304
1087.44	240.751
1090.81	92.3223
1094.19	95.4853
1097.56	116.069
1100.93	87.8066
1104.31	53.168
1107.68	72.3438
1111.06	90.8096
1114.43	19.376
1117.81	35.5537
1121.18	31.8965
1124.56	10.3613
1127.93	20.2998
1131.31	21.6338
1134.68	17.6094
1138.06	59.2773
1141.43	14.1201
1144.81	71.3311
1148.18	51.5322
1151.56	65.4688
1154.93	36.6572
1158.31	21.5938
1161.68	109.556
1165.06	87.6738
1168.43	97.3018
1171.81	111.368
1175.18	91.8672
1178.56	143.356
1181.93	132.768
1185.31	131.659
1188.68	190.255
1192.06	120.942
1195.43	174.141
1198.81	194.473
1202.18	119.006
1205.56	207.55
1208.93	118.973
1212.3	174.252
1215.68	159.807
1219.05	173.019
1222.43	132.884
1225.8	149.171
1229.18	104.709
1232.55	107.705
1235.93	39.0596
1239.3	139.428
1242.68	100.645
1246.05	121.152
1249.43	200.988
1252.8	124.522
1256.18	37.9785
1259.55	54.2119
1262.93	47.6562
