Measurement: Raman, 514 nm, unoriented, Raman Data Processed
Mineral: Kyanite
Rruff sample: R050450
Ideal chemistry: Al_2_OSiO_4_
Locality: Switzerland
Source: Marcus Origlieri
Description: Blue bladed crystals
Measured chemistry: Al_2.00_OSi_1.00_O_4_
Raman shift (cm-1)	intensity
114.254	0
118.424	253.848
122.592	146.289
126.758	123.637
130.922	205.974
135.083	236.957
139.243	255.449
143.401	283.667
147.557	263.198
151.711	246.119
155.863	150.233
160.013	139.677
164.161	204.483
168.308	124.926
172.452	214.129
176.594	268.683
180.734	192.861
184.872	167.408
189.008	181.699
193.143	176.227
197.275	170.862
201.405	161.727
205.534	623.737
209.66	465.391
213.784	180.467
217.907	99.749
222.027	131.155
226.146	316.667
230.263	52.265
234.377	17.376
238.49	67.969
242.601	180.953
246.709	83.918
250.816	67.619
254.921	148.102
259.024	102.187
263.125	15.235
267.224	132.903
271.321	167.569
275.416	471.739
279.51	686.631
283.601	357.405
287.69	433.836
291.778	1324.1
295.863	1430.89
299.947	4929.9
304.029	4370.07
308.108	1663.25
312.186	409.941
316.262	439.388
320.336	1513.77
324.408	6367.1
328.478	5180.37
332.546	1298.58
336.612	306.758
340.677	763.772
344.739	656.652
348.799	78.391
352.858	207.779
356.915	488.967
360.969	1174
365.022	720.424
369.073	1420.03
373.122	2479.3
377.169	2724.84
381.215	2993.93
385.258	5203.89
389.299	3353.94
393.339	4549.82
397.376	1885.53
401.412	2693.77
405.446	4594.19
409.478	1508.48
413.508	403.244
417.536	504.441
421.562	439.51
425.586	357.877
429.609	439.236
433.629	2265.36
437.648	4074.41
441.665	2574.48
445.68	1311.56
449.693	914.453
453.704	508.434
457.713	12.189
461.721	106.193
465.726	97.764
469.73	8.408
473.731	582.879
477.731	1068.14
481.729	4565.22
485.725	15315
489.72	11970.7
493.712	5289.21
497.703	2074.14
501.691	920.213
505.678	739.094
509.663	767.477
513.646	809.654
517.627	703.639
521.607	95.457
525.584	44.736
529.56	123.164
533.534	89.943
537.506	117.359
541.476	66.955
545.444	85.982
549.41	106.992
553.375	85.256
557.337	245.203
561.298	401.756
565.257	697.123
569.214	337.662
573.17	152.73
577.123	327.742
581.075	509.098
585.024	847.193
588.972	877.057
592.918	424.59
596.863	364.576
600.805	208.342
604.746	535.279
608.685	412.402
612.621	260.795
616.557	490.322
620.49	472.221
624.421	348.016
628.351	784.322
632.279	1204.6
636.205	1470.36
640.129	1541.28
644.051	679.814
647.972	560.656
651.89	265.861
655.807	761.246
659.722	740.479
663.636	584.432
667.547	480.715
671.457	535.682
675.365	458.479
679.271	399.752
683.175	481.326
687.077	284.244
690.978	392.086
694.877	556.484
698.774	410.58
702.669	216.025
706.562	603.285
710.454	408.963
714.344	19.156
718.232	142.932
722.118	275.83
726.002	287.357
729.885	363.33
733.766	27.77
737.645	449.604
741.522	22.033
745.397	302.133
749.271	276.893
753.143	121.586
757.013	124.297
760.881	144.787
764.748	43.791
768.613	15.762
772.476	32.047
776.337	280.219
780.196	26.467
784.054	26.588
787.91	74.783
791.764	77.516
795.616	5.416
799.467	152.541
803.316	49.934
807.163	546.482
811.008	87.33
814.851	142.018
818.693	13.518
822.533	230.779
826.371	88.053
830.208	311.248
834.042	119.281
837.875	192.17
841.706	579.717
845.536	555.83
849.363	62.984
853.189	48.328
857.013	722.459
860.836	543.775
864.656	579.041
868.475	541.625
872.292	650.992
876.108	722.82
879.922	1086.61
883.733	1356.49
887.544	2139
891.352	2941.17
895.159	2956.07
898.964	3675.08
902.767	3724.91
906.568	2666.17
910.368	1627.31
914.166	1364.72
917.962	969.426
921.757	1420.84
925.55	1731.42
929.341	1542.95
933.13	2114.43
936.918	2381.87
940.703	3427.26
944.488	4776.55
948.27	6141.86
952.051	7502.19
955.83	6916.96
959.607	5577.91
963.383	4844.48
967.156	3949.5
970.928	2811.44
974.699	1931.63
978.468	1126.32
982.234	957.723
986	1171.63
989.763	969.922
993.525	785.055
997.285	1076.68
1001.04	1156.4
1004.8	1089.19
1008.55	719.305
1012.31	852.328
1016.06	705.742
1019.81	566.656
1023.56	579.59
1027.31	898.383
1031.05	865.234
1034.79	595.293
1038.53	763.727
1042.27	1009.48
1046.01	607.547
1049.75	1068.7
1053.48	933.352
1057.22	948.879
1060.95	627.012
1064.68	691.48
1068.4	430.148
1072.13	678.082
1075.86	828.484
1079.58	888.145
1083.3	281.863
1087.02	529.027
1090.74	429.859
1094.45	314.367
1098.17	233.758
1101.88	184.785
1105.59	429.273
1109.3	120.402
1113.01	150.184
1116.71	390.344
1120.42	174.773
1124.12	386.867
1127.82	338.43
1131.52	351.996
1135.22	140.352
1138.91	362.344
1142.61	27.039
1146.3	268.746
1149.99	256.711
1153.68	529.84
1157.37	102.148
1161.06	60.762
1164.74	177.41
1168.42	363.625
1172.1	193.398
1175.78	401.887
1179.46	291.227
1183.14	371.152
1186.81	368.902
1190.48	285.012
1194.15	648.992
1197.83	585.273
1201.49	287.258
1205.16	584.051
1208.82	193.809
1212.49	494.301
1216.15	526.676
1219.81	573.457
1223.46	71.059
1227.12	411.418
1230.78	287.316
1234.43	304.754
1238.08	394.273
1241.73	283.016
1245.38	294.066
1249.03	6.07
1252.67	161.676
