Measurement: Raman, 785 nm, unoriented, Raman Data Processed
Mineral: Kyanite
Rruff sample: R040119
Ideal chemistry: Al_2_OSiO_4_
Locality: Rutherford County, North Carolina, USA
Source: University of Arizona Mineral Museum
Description: Blue bladed crystal
Measured chemistry: (Al_0.99_Fe^3+^_0.01_)_2_OSi_1.00_O_4_
Raman shift (cm-1)	intensity
161.035	0
163.928	1.35547
166.821	88.4761
169.713	173.775
172.606	286.945
175.499	324.331
178.391	304.702
181.284	260.031
184.177	219.949
187.069	381.45
189.962	484.723
192.855	599.104
195.748	698.913
198.64	706.987
201.533	726.54
204.426	747.132
207.318	842.526
210.211	755.512
213.104	761.111
215.996	790.928
218.889	863.759
221.782	1002.07
224.674	1072.18
227.567	925.698
230.46	852.705
233.353	787.132
236.245	763.33
239.138	649.466
242.031	543.923
244.923	439.902
247.816	283.28
250.709	170.123
253.601	2.72119
256.494	12.8179
259.387	14.9927
262.28	111.608
265.172	148.542
268.065	98.0752
270.958	69.7314
273.85	150.932
276.743	363.875
279.636	169.501
282.529	25.96
285.421	16.9634
288.314	325.511
291.207	634.365
294.099	553.868
296.992	1096.17
299.885	2665.68
302.777	1843.98
305.67	294.852
308.563	84.5635
311.455	110.07
314.348	176.923
317.241	370.837
320.134	678.431
323.026	1868.62
325.919	2452.73
328.812	566.544
331.704	79.3389
334.597	86.8701
337.49	20.8057
340.382	132.343
343.275	22.8149
346.168	43.0957
349.061	59.8833
351.953	123.363
354.846	281.054
357.739	898.249
360.631	1149.61
363.524	385.728
366.417	239.286
369.31	448.649
372.202	699.126
375.095	794.789
377.988	1016.71
380.88	1260.81
383.773	2072.52
386.666	1727.56
389.558	1514.86
392.451	1908.14
395.344	823.701
398.236	885.012
401.129	1574.4
404.022	2179.27
406.915	844.946
409.807	287.065
412.7	162.415
415.593	198.042
418.485	383.357
421.378	314.964
424.271	318.455
427.163	462.827
430.056	708.938
432.949	1276.32
435.842	2043.69
438.734	1845.63
441.627	824.28
444.52	559.746
447.412	642.908
450.305	272.692
453.198	62.2085
456.091	18.9434
458.983	48.4058
461.876	14.5771
464.769	152.287
467.661	165.699
470.554	297.824
473.447	670.638
476.339	1080.64
479.232	1752.44
482.125	3325.77
485.017	5489.97
487.91	4272.09
490.803	1979.88
493.696	1167.12
496.588	669.392
499.481	467.909
502.374	392.326
505.266	298.509
508.159	312.814
511.052	363.628
513.944	301.676
516.837	106.34
519.73	80.5835
522.623	24.335
525.515	1.76416
528.408	34.0855
531.301	1.29785
534.193	10.8667
537.086	4.82373
539.979	13.1294
542.871	24.1206
545.764	14.8384
548.657	73.6006
551.55	29.3081
554.442	110.543
557.335	250.96
560.228	591.906
563.12	628.281
566.013	225.444
568.906	156.988
571.798	53.7959
574.691	105.08
577.584	99.4712
580.477	142.995
583.369	260.673
586.262	224.243
589.155	146.643
592.047	13.7324
594.94	77.3877
597.833	221.232
600.726	297.919
603.618	536.411
606.511	606.437
609.404	397.551
612.296	245.128
615.189	184.19
618.082	236.026
620.974	227.795
623.867	261.409
626.76	356.125
629.653	370.218
632.545	291.07
635.438	303.812
638.331	216.381
641.223	136.61
644.116	44.3921
647.009	82.2146
649.901	149.308
652.794	192.698
655.687	309.495
658.58	273.833
661.472	171.438
664.365	207.499
667.258	219.147
670.15	230.066
673.043	172.022
675.936	73.2627
678.828	52.0181
681.721	77.2029
684.614	33.2505
687.506	1.87695
690.399	34.4077
693.292	6.07935
696.185	13.5044
699.077	76.7952
701.97	47.7195
704.863	71.2224
707.755	53.5855
710.648	18.4822
713.541	52.7888
716.433	72.3323
719.326	64.1619
722.219	48.3232
725.112	89.2976
728.004	36.8264
730.897	60.3787
733.79	32.0054
736.682	54.6221
739.575	35.0117
742.468	36.4956
745.361	53.1418
748.253	12.7073
751.146	21.6047
754.039	46.7878
756.931	18.989
759.824	19.8852
762.717	2.54102
765.609	57.9749
768.502	18.1746
771.395	16.3145
774.288	16.6291
777.18	35.283
780.073	37.9336
782.966	0.992676
785.858	46.4468
788.751	24.0691
791.644	47.7434
794.536	92.8916
797.429	128.381
800.322	82.2163
803.215	58.5312
806.107	52.178
809	60.6941
811.893	70.9206
814.785	88.3386
817.678	114.675
820.571	55.9185
823.463	5.9397
826.356	47.4185
829.249	37.394
832.141	37.2783
835.034	66.0823
837.927	34.7991
840.82	9.36865
843.712	20.0666
846.605	9.64502
849.498	22.2703
852.39	35.8101
855.283	10.4534
858.176	11.0142
861.068	2.57178
863.961	9.23999
866.854	22.3484
869.747	1.96143
872.639	23.9102
875.532	56.2126
878.425	81.3311
881.317	125.792
884.21	179.17
887.103	195.831
889.995	203.464
892.888	199.097
895.781	194.916
898.674	244.834
901.566	203.287
904.459	140.069
907.352	133.899
910.244	112.45
913.137	139.555
916.03	201.042
918.923	240.282
921.815	298.413
924.708	387.128
927.601	432.669
930.493	647.663
933.386	871.133
936.279	1206.23
939.171	1567.05
942.064	2118.54
944.957	3001.73
947.85	3771.03
950.742	4095.46
953.635	3512.77
956.528	2766.87
959.42	2289.47
962.313	1807.7
965.206	1353.31
968.098	875.123
970.991	580.328
973.884	346.619
976.777	272.957
979.669	199.293
982.562	185.582
985.455	149.28
988.347	129.073
991.24	159.825
994.133	274.44
997.025	449.338
999.918	528.789
1002.81	383.099
1005.7	254.516
1008.6	120.472
1011.49	88.3835
1014.38	61.0378
1017.27	11.0605
1020.17	20.7427
1023.06	1.61621
1025.95	26.9797
1028.85	35.2165
1031.74	4.4436
1034.63	11.6782
1037.52	3.54077
1040.42	0.117676
1043.31	1.65332
1046.2	8.77075
1049.09	24.5359
1051.99	12.3618
1054.88	35.9712
1057.77	60.2947
1060.66	0.11792
1063.56	36.822
1066.45	36.6824
1069.34	19.031
1072.24	6.42285
1075.13	57.3833
1078.02	36.8906
1080.91	46.2195
1083.81	54.9277
1086.7	6.53003
1089.59	50.7256
1092.48	55.2761
1095.38	41.9324
1098.27	47.9932
1101.16	40.4451
1104.06	67.5147
1106.95	36.7429
1109.84	67.1355
1112.73	40.467
1115.63	22.4553
1118.52	44.7224
1121.41	55.3496
1124.3	78.366
1127.2	65.2412
1130.09	52.9023
1132.98	72.3284
1135.88	38.0398
1138.77	51.8923
1141.66	40.3586
1144.55	36.7293
1147.45	37.4607
1150.34	26.033
1153.23	26.8589
1156.12	2.35205
1159.02	34.0215
1161.91	44.7007
1164.8	21.6575
1167.69	48.0193
1170.59	1.21289
1173.48	26.0139
1176.37	34.343
1179.27	24.9978
1182.16	40.7498
1185.05	2.67773
1187.94	32.3281
1190.84	11.7139
1193.73	44.0847
1196.62	14.3965
1199.51	27.4009
1202.41	24.9587
1205.3	27.3594
1208.19	43.2654
1211.09	48.5232
1213.98	68.7461
1216.87	25.6262
1219.76	54.2971
