Measurement: Raman, 780 nm, unoriented, Raman Data Processed
Mineral: Kyanite
Rruff sample: R100159
Ideal chemistry: Al_2_OSiO_4_
Locality: Tanzania
Source: William W. Pinch
Description: Reddish-orange cut gemstone
Raman shift (cm-1)	intensity
100.73	0
104.105	26.9492
107.48	118.82
110.854	193.752
114.229	226.629
117.604	192.402
120.979	183.211
124.354	203.268
127.728	205.666
131.103	209.76
134.478	222.76
137.853	289.303
141.228	286.262
144.602	269.654
147.977	221.047
151.352	219.172
154.727	194.842
158.102	220.873
161.477	160.397
164.851	193.613
168.226	191.609
171.601	161.504
174.976	148.406
178.351	136.533
181.726	112.588
185.1	125.871
188.475	129.002
191.85	103.656
195.225	75.1602
198.6	85.3066
201.974	52.791
205.349	57.0918
208.724	67.8672
212.099	45.1719
215.474	46.3984
218.848	26.0098
222.223	34.2422
225.598	42.2402
228.973	15.6445
232.348	16.543
235.722	28.8438
239.097	47.6367
242.472	25.8145
245.847	28.1387
249.222	15.7559
252.597	15.002
255.971	0.826172
259.346	7.61328
262.721	2.6582
266.096	33.9629
269.471	2.50977
272.846	2.80664
276.22	45.7324
279.595	33.2539
282.97	19.8223
286.345	13.1289
289.719	60.4277
293.094	29.3125
296.469	119.84
299.844	370.012
303.219	137.703
306.594	26.8262
309.968	42.3945
313.343	28.4863
316.718	33.5039
320.093	98.6445
323.468	243.971
326.842	168.93
330.217	20.2773
333.592	13.543
336.967	43.8691
340.342	63.0469
343.717	42.3301
347.091	28.9961
350.466	11.7773
353.841	9.74609
357.216	126.482
360.591	137.603
363.965	4.7793
367.34	25.9785
370.715	45.8848
374.09	43.2168
377.465	77.7324
380.839	99.0391
384.214	188.713
387.589	73.8184
390.964	160.082
394.339	62.0752
397.714	43.6455
401.088	198.3
404.463	219.932
407.838	22.9502
411.213	2.87109
414.588	32.6582
417.962	33.8096
421.337	51.0312
424.712	11.9141
428.087	28.0117
431.462	112.244
434.837	247.26
438.211	224.773
441.586	67.0352
444.961	36.3945
448.336	61.9912
451.711	38.0449
455.085	26.8574
458.46	34.0293
461.835	43.0703
465.21	44.1211
468.585	60.8213
471.959	50.4932
475.334	93.7627
478.709	143.894
482.084	413.055
485.459	661.118
488.834	350.353
492.208	162.948
495.583	91.4922
498.958	64.7002
502.333	19.2197
505.708	27.8467
509.082	65.9561
512.457	75.9834
515.832	61.3281
519.207	17.6006
522.582	5.77539
525.957	23.8887
529.331	9.84375
532.706	10.7178
536.081	11.7705
539.456	1.88867
542.831	15.2549
546.205	8.37598
549.58	8.60742
552.955	26.3037
556.33	53.3457
559.705	111.156
563.08	124.63
566.454	65.2148
569.829	63.7441
573.204	58.166
576.579	79.7617
579.954	63.5205
583.328	34.3887
586.703	33.8652
590.078	43.4541
593.453	63.3574
596.828	131.954
600.202	85.4531
603.577	126.839
606.952	100.166
610.327	139.249
613.702	108.926
617.077	83.5117
620.451	77.4834
623.826	95.7451
627.201	68.5996
630.576	50.8047
633.951	86.0029
637.325	70.8652
640.7	44.2148
644.075	1.90234
647.45	18.2246
650.825	30.0723
654.199	47.3301
657.574	36.2461
660.949	18.374
664.324	3.61621
667.699	37.0176
671.073	8.51465
674.448	3.38574
677.823	2.5459
681.198	7.34863
684.573	38.6992
687.948	34.7959
691.322	30.4707
694.697	15.752
698.072	10.9355
701.447	25.4961
704.822	28.1982
708.197	38.001
711.571	29.5488
714.946	49.499
718.321	54.5147
721.696	29.3799
725.071	41.6367
728.445	21.2559
731.82	0.749023
735.195	9.81152
738.57	3.78418
741.945	7.07519
745.319	7.65625
748.694	20.748
752.069	15.6641
755.444	2.39551
758.819	2.7666
762.193	13.4307
765.568	4.51758
768.943	4.96582
772.318	27.5801
775.693	24.3066
779.068	6.63769
782.442	16.4854
785.817	19.4111
789.192	29.9004
792.567	26.0186
795.942	15.832
799.317	5.19141
802.691	2.73535
806.066	46.7236
809.441	33.7793
812.816	12.293
816.191	59.8848
819.565	39.6152
822.94	51.1523
826.315	54.5518
829.69	31.7197
833.065	7.87109
836.439	20.6621
839.814	17.7998
843.189	24.6543
846.564	38.1982
849.939	25.3916
853.313	23.6514
856.688	39.3525
860.063	43.2734
863.438	63.1631
866.813	42.7978
870.188	58.3633
873.562	81.7256
876.937	71.3877
880.312	83.8857
883.687	109.311
887.062	142.992
890.437	153.559
893.811	177.511
897.186	131.547
900.561	151.475
903.936	104.606
907.311	74.1553
910.685	51.5039
914.06	32.2148
917.435	34.0234
920.81	6.37402
924.185	22.041
927.559	41.3711
930.934	84.1221
934.309	89.9814
937.684	99.0371
941.059	128.945
944.433	183.255
947.808	217.922
951.183	237.302
954.558	216.981
957.933	186.419
961.308	188.291
964.682	120.191
968.057	64.7451
971.432	52.4541
974.807	8.43066
978.182	8.67676
981.557	8.0752
984.931	15.2529
988.306	7.1582
991.681	7.45801
995.056	16.2812
998.431	55.4004
1001.8	81.5986
1005.18	45.4902
1008.55	33.3379
1011.93	20.2354
1015.3	33.9971
1018.68	3.58008
1022.05	24.6787
1025.43	44.2539
1028.8	38.6289
1032.18	60.5684
1035.55	85.8232
1038.93	55.2969
1042.3	65.3603
1045.68	30.0889
1049.05	43.6143
1052.43	19.9688
1055.8	14.8232
1059.18	4.27832
1062.55	17.9033
1065.93	47.2129
1069.3	28.584
1072.68	25.5547
1076.05	39.3643
1079.43	11.2021
1082.8	8.30762
1086.18	17.9072
1089.55	29.2773
1092.92	24.209
1096.3	14.7129
1099.67	7.45801
1103.05	18.3896
1106.42	3.07715
1109.8	23.1514
1113.17	12.8184
1116.55	27.5723
1119.92	24.4961
1123.3	17.3848
1126.67	6.59766
1130.05	29.3555
1133.42	32.8213
1136.8	21.6465
1140.17	42.5664
1143.55	35.7148
1146.92	55.123
1150.3	42.7432
1153.67	58.8565
1157.05	41.5518
1160.42	62.1084
1163.8	56.957
1167.17	68.1611
1170.55	63.708
1173.92	73.2656
1177.3	64.918
1180.67	69.8799
1184.05	58.3809
1187.42	52.751
1190.8	67.939
1194.17	89.6499
1197.55	92.4194
1200.92	53.8662
1204.29	37.8643
1207.67	57.3105
1211.04	66.0415
1214.42	24.2134
1217.79	39.8018
1221.17	22.2031
1224.54	50.7036
1227.92	24.5068
1231.29	20.2598
1234.67	37.0107
1238.04	33.1099
1241.42	25.8735
1244.79	4.21436
1248.17	3.15772
1251.54	3.89209
1254.92	13.1968
1258.29	18.7495
1261.67	8.5498
1265.04	2.25732
1268.42	34.2861
1271.79	29.6719
1275.16	18.5361
1278.54	7.17822
1281.91	15.4941
