Measurement: Raman, 532 nm, unoriented, Raman Data Processed
Mineral: Laachite
Rruff sample: R141091
Ideal chemistry: (Ca,Mn^2+^)_2_Zr^4+^_2_Nb^5+^_2_Ti^4+^Fe^2+^O_14_
Locality: In den Dellen, Laach lake volcano, Mendig, Eifel, Germany
Source: Ch. and H. Sch√§fer
Description: Prismatic red-brown crystals
Raman shift (cm-1)	intensity
89.7832	0
93.158	34.0979
96.5328	18.4888
99.9077	0.220795
103.282	2.08585
106.657	15.2022
110.032	44.2591
113.407	54.9674
116.782	76.3
120.157	77.2452
123.531	78.3194
126.906	73.6835
130.281	77.1883
133.656	75.2283
137.031	74.3294
140.405	85.2688
143.78	76.5508
147.155	78.4843
150.53	81.8298
153.905	78.3179
157.28	79.9423
160.654	74.5861
164.029	78.9684
167.404	77.5154
170.779	76.0075
174.154	73.8123
177.528	70.6354
180.903	66.7385
184.278	70.2365
187.653	69.9127
191.028	65.5039
194.403	63.2398
197.777	60.7791
201.152	51.898
204.527	46.1533
207.902	38.2799
211.277	31.7783
214.651	31.0836
218.026	24.125
221.401	16.5497
224.776	11.9863
228.151	8.36279
231.525	3.97522
234.9	0.312134
238.275	3.9469
241.65	3.3833
245.025	0.069153
248.4	7.44794
251.774	4.32965
255.149	1.04901
258.524	4.79462
261.899	9.44403
265.274	15.3732
268.649	21.738
272.023	28.2382
275.398	43.9984
278.773	47.9038
282.148	57.8965
285.523	66.2755
288.897	77.628
292.272	85.0913
295.647	88.5063
299.022	90.4222
302.397	94.6568
305.772	99.7407
309.146	104.581
312.521	107.077
315.896	109.846
319.271	101.472
322.646	102.959
326.02	100.635
329.395	95.5699
332.77	83.6103
336.145	75.8564
339.52	66.814
342.894	56.2363
346.269	47.3611
349.644	36.6578
353.019	28.203
356.394	24.9257
359.769	23.6903
363.143	19.7647
366.518	16.6152
369.893	17.7393
373.268	19.0361
376.643	23.5621
380.017	27.8171
383.392	32.2283
386.767	33.9526
390.142	36.9822
393.517	35.4245
396.892	34.8915
400.266	33.9717
403.641	32.5765
407.016	26.0955
410.391	20.2176
413.766	18.9072
417.14	14.9522
420.515	10.9741
423.89	7.94617
427.265	4.84992
430.64	1.32556
434.014	4.06201
437.389	3.47498
440.764	4.3324
444.139	4.54834
447.514	1.44067
450.889	0.099182
454.263	6.77124
457.638	10.2805
461.013	18.8763
464.388	25.4145
467.763	35.0839
471.137	39.2878
474.512	41.0472
477.887	45.081
481.262	46.0444
484.637	48.6354
488.012	48.865
491.386	44.9654
494.761	35.4373
498.136	27.0928
501.511	18.3967
504.886	10.2286
508.26	1.01276
511.635	1.85828
515.01	1.91913
518.385	3.94318
521.76	0.715271
525.135	5.44342
528.509	9.77911
531.884	17.6452
535.259	24.1923
538.634	34.9319
542.009	43.2286
545.384	53.8892
548.758	68.7512
552.133	73.6561
555.508	80.6426
558.883	86.2339
562.258	99.7196
565.632	104.281
569.007	110.506
572.382	120.135
575.757	123.432
579.132	128.704
582.506	134.002
585.881	135.437
589.256	135.956
592.631	133.295
596.006	130.864
599.381	126.422
602.755	124.246
606.13	117.636
609.505	110.619
612.88	104.964
616.255	96.8883
619.63	89.6547
623.004	78.9757
626.379	77.8387
629.754	73.8923
633.129	63.9473
636.504	57.6102
639.878	50.0962
643.253	42.9572
646.628	38.9213
650.003	30.7297
653.378	24.4712
656.752	16.552
660.127	13.3484
663.502	5.34753
666.877	4.58942
670.252	3.89435
673.626	2.20044
677.001	3.24109
680.376	1.57278
683.751	4.50705
687.126	4.22342
690.501	2.9006
693.875	3.91293
697.25	0.620941
700.625	2.18408
704	3.68622
707.375	3.22671
710.75	7.31705
714.124	11.755
717.499	14.4767
720.874	14.7345
724.249	21.135
727.624	27.1199
730.998	28.5546
734.373	33.5783
737.748	33.1809
741.123	35.8844
744.498	37.092
747.872	35.7618
751.247	36.5806
754.622	35.664
757.997	35.6785
761.372	36.6823
764.747	37.6352
768.121	41.2505
771.496	39.0549
774.871	40.1592
778.246	38.3721
781.621	36.7807
784.995	36.3208
788.37	33.4936
791.745	36.3519
795.12	33.4305
798.495	32.76
801.87	30.0926
805.244	31.6233
808.619	34.1397
811.994	32.0662
815.369	32.5271
818.744	36.9054
822.119	38.1562
825.493	38.2222
828.868	39.0104
832.243	40.6031
835.618	39.2371
838.993	42.8568
842.367	42.962
845.742	41.8068
849.117	43.4694
852.492	39.2833
855.867	34.69
859.241	35.4947
862.616	30.9354
865.991	26.2003
869.366	23.4486
872.741	18.6307
876.115	16.0669
879.49	13.7333
882.865	7.07834
886.24	2.38245
889.615	2.48639
892.99	0.563629
896.364	0.838654
899.739	2.03751
903.114	2.15561
906.489	2.9422
909.864	0.850037
913.239	0.00061
916.613	2.64716
919.988	2.40332
923.363	0.898743
926.738	5.29596
930.113	1.10187
933.487	4.30481
936.862	6.64792
940.237	6.10733
943.612	8.17401
946.987	7.30359
950.361	8.96457
953.736	10.7567
957.111	10.5111
960.486	10.8485
963.861	10.9813
967.236	8.53397
970.61	10.1072
973.985	9.01822
977.36	10.6048
980.735	8.37234
984.11	9.18744
987.485	4.71951
990.859	6.98398
994.234	6.49292
997.609	4.26904
1000.98	5.06445
1004.36	5.86883
1007.73	3.89441
1011.11	4.68933
1014.48	5.27191
1017.86	4.01627
1021.23	2.60263
1024.61	4.07596
1027.98	2.52579
1031.36	1.98746
1034.73	3.45813
1038.11	1.55658
1041.48	1.82873
1044.86	2.70151
1048.23	3.45377
1051.61	4.36264
1054.98	3.32388
1058.36	1.09354
1061.73	0.718597
1065.11	0.193756
1068.48	0.044861
1071.86	1.17801
1075.23	0.101959
1078.6	1.89508
1081.98	1.0925
1085.35	1.04684
1088.73	1.82635
1092.1	2.25299
1095.48	2.2908
1098.85	1.21851
1102.23	1.49439
1105.6	4.04053
1108.98	0.257416
1112.35	2.53354
1115.73	3.42786
1119.1	1.74768
1122.48	3.44546
1125.85	0.058746
1129.23	2.20032
1132.6	1.03723
1135.98	2.60767
1139.35	0.048035
1142.73	2.60535
1146.1	4.57559
1149.48	1.22409
1152.85	2.55627
1156.22	1.46558
1159.6	1.09778
1162.97	1.72552
1166.35	1.64026
1169.72	0.548035
1173.1	0.141937
1176.47	2.10092
1179.85	2.09601
1183.22	3.67758
1186.6	4.96606
1189.97	3.01437
1193.35	3.51175
1196.72	1.38593
1200.1	2.41696
1203.47	2.68091
1206.85	0.139404
1210.22	3.87479
1213.6	2.47836
1216.97	2.48608
1220.35	3.58423
1223.72	0.25946
1227.1	0.563782
1230.47	1.41302
1233.85	0.523102
1237.22	1.08063
1240.6	1.82394
1243.97	1.78763
1247.35	2.17368
1250.72	1.76511
1254.1	3.38037
1257.47	3.17276
1260.85	2.42267
1264.22	1.55209
1267.59	1.93805
1270.97	0.954529
1274.34	1.74753
1277.72	3.02136
1281.09	3.22183
1284.47	1.91248
1287.84	3.59796
1291.22	3.75516
1294.59	2.17709
1297.97	0.18457
1301.34	0.345917
