Measurement: Raman, 780 nm, unoriented, Raman Data Processed
Mineral: Laachite
Rruff sample: R141091
Ideal chemistry: (Ca,Mn^2+^)_2_Zr^4+^_2_Nb^5+^_2_Ti^4+^Fe^2+^O_14_
Locality: In den Dellen, Laach lake volcano, Mendig, Eifel, Germany
Source: Ch. and H. Sch√§fer
Description: Prismatic red-brown crystals
Raman shift (cm-1)	intensity
97.8274	0
101.202	7.95972
104.577	2.58228
107.952	22.5439
111.327	15.5154
114.701	26.2366
118.076	22.0159
121.451	5.74512
124.826	4.88477
128.201	1.12793
131.576	3.84815
134.95	0.437256
138.325	19.2248
141.7	41.7651
145.075	52.4475
148.45	56.9824
151.825	66.5935
155.199	85.1311
158.574	89.7412
161.949	108.211
165.324	112.789
168.698	117.889
172.073	125.374
175.448	125.161
178.823	119.398
182.198	114.344
185.573	113.372
188.947	104.824
192.322	99.3138
195.697	84.1107
199.072	68.4757
202.447	55.7068
205.821	47.4662
209.196	38.5789
212.571	30.0713
215.946	21.125
219.321	15.7622
222.696	11.2823
226.07	14.517
229.445	4.95154
232.82	1.55225
236.195	4.44665
239.57	2.6792
242.945	5.4115
246.319	4.19873
249.694	4.62122
253.069	12.3558
256.444	22.9467
259.818	36.8748
263.193	60.8585
266.568	80.3217
269.943	99.4923
273.318	121.694
276.693	143.367
280.067	168.963
283.442	186.312
286.817	210.262
290.192	235.586
293.567	241.571
296.942	266.434
300.316	276.067
303.691	279.853
307.066	284.677
310.441	293.439
313.816	293.053
317.19	285.214
320.565	276.061
323.94	253.921
327.315	240.738
330.69	210.016
334.065	181.521
337.439	156.223
340.814	123.424
344.189	98.3496
347.564	65.7236
350.938	44.0298
354.313	22.9249
357.688	14.5973
361.063	1.23767
364.438	8.65527
367.813	1.91113
371.187	3.62744
374.562	2.16589
377.937	10.2245
381.312	23.088
384.687	30.6593
388.062	41.8534
391.436	47.9026
394.811	55.1585
398.186	61.1198
401.561	56.2483
404.935	78.4644
408.31	94.4824
411.685	101.086
415.06	112.279
418.435	123.316
421.81	141.252
425.184	142.38
428.559	145.504
431.934	144.794
435.309	127.376
438.684	110.411
442.058	100.082
445.433	72.5157
448.808	51.6724
452.183	36.498
455.558	20.2827
458.933	10.2119
462.307	3.73279
465.682	4.67957
469.057	4.30249
472.432	1.62537
475.807	3.38879
479.182	8.7301
482.556	12.1191
485.931	17.3076
489.306	26.2701
492.681	24.2773
496.055	24.6195
499.43	21.7516
502.805	16.9053
506.18	11.8805
509.555	11.1189
512.93	15.1035
516.304	18.6044
519.679	5.45264
523.054	1.66016
526.429	5.34253
529.804	3.62012
533.178	1.98059
536.553	3.29761
539.928	7.47436
543.303	13.9077
546.678	26.6041
550.053	34.9307
553.427	48.9489
556.802	58.5311
560.177	73.0466
563.552	81.6399
566.927	93.9305
570.302	112.492
573.676	126.201
577.051	139.355
580.426	152.871
583.801	162.047
587.176	168.247
590.55	176.762
593.925	180.295
597.3	187.756
600.675	189.538
604.05	192.194
607.424	185.677
610.799	180.337
614.174	173.316
617.549	172.171
620.924	161.767
624.298	159.691
627.673	152.361
631.048	144.994
634.423	139.993
637.798	136.345
641.173	126.743
644.547	119.146
647.922	106.795
651.297	97.4513
654.672	81.6197
658.047	74.4034
661.421	59.1928
664.796	48.4681
668.171	36.3447
671.546	20.7008
674.921	15.8321
678.295	7.05847
681.67	4.13739
685.045	3.4267
688.42	6.07843
691.795	4.62128
695.17	5.06268
698.544	5.55792
701.919	4.95691
705.294	0.960632
708.669	1.10675
712.044	1.08789
715.418	6.13776
718.793	7.75366
722.168	12.1241
725.543	16.0917
728.918	20.7732
732.293	27.2324
735.667	35.3215
739.042	39.459
742.417	44.0239
745.792	40.8483
749.167	46.3004
752.541	49.238
755.916	47.9343
759.291	45.5664
762.666	48.6619
766.041	47.2418
769.415	51.1987
772.79	47.7504
776.165	53.5564
779.54	47.1124
782.915	47.5804
786.29	48.5933
789.664	46.5804
793.039	43.6854
796.414	43.2853
799.789	39.6603
803.164	36.7055
806.538	41.2675
809.913	34.9085
813.288	35.7889
816.663	39.8411
820.038	38.2739
823.413	43.3248
826.787	48.7291
830.162	48.4684
833.537	51.6182
836.912	54.9844
840.287	53.5759
843.661	58.0419
847.036	57.6672
850.411	54.6699
853.786	53.4913
857.161	48.4119
860.535	47.4559
863.91	40.419
867.285	37.0848
870.66	35.1419
874.035	28.0382
877.409	21.7471
880.784	17.9839
884.159	13.5641
887.534	9.28101
890.909	8.15674
894.284	1.34174
897.658	2.41809
901.033	0.299255
904.408	4.04706
907.783	1.21625
911.158	2.49005
914.533	1.87256
917.907	1.13312
921.282	2.21094
924.657	1.9433
928.032	2.75165
931.407	3.10217
934.781	1.1799
938.156	6.00769
941.531	8.6662
944.906	8.86563
948.281	8.5307
951.655	13.5778
955.03	16.1624
958.405	17.7487
961.78	17.8285
965.155	19.5344
968.529	20.604
971.904	20.0481
975.279	23.8909
978.654	22.1776
982.029	20.6812
985.404	26.0585
988.778	22.3457
992.153	23.3214
995.528	24.2483
998.903	27.3562
1002.28	26.2096
1005.65	26.6775
1009.03	26.0977
1012.4	24.7059
1015.78	23.8627
1019.15	23.0299
1022.53	19.9401
1025.9	17.5889
1029.28	16.4953
1032.65	13.7575
1036.03	13.3136
1039.4	10.9625
1042.78	12.4176
1046.15	5.49475
1049.53	5.97464
1052.9	6.17624
1056.28	7.56958
1059.65	3.4769
1063.02	4.84174
1066.4	3.35333
1069.77	0.192291
1073.15	3.11121
1076.52	1.95731
1079.9	1.17633
1083.27	2.53299
1086.65	2.42639
1090.02	1.89359
1093.4	2.45431
1096.77	1.82513
1100.15	1.49976
1103.52	2.08664
1106.9	2.32031
1110.27	5.51123
1113.65	3.97315
1117.02	1.48355
1120.4	1.33768
1123.77	2.62906
1127.15	3.41931
1130.52	1.06644
1133.9	4.28064
1137.27	0.383423
1140.64	4.65717
1144.02	0.544312
1147.39	4.22589
1150.77	6.02966
1154.14	2.32202
1157.52	1.14343
1160.89	6.51495
1164.27	5.50513
1167.64	2.35059
1171.02	17.7392
1174.39	9.07831
1177.77	11.1159
1181.14	12.4844
1184.52	14.7567
1187.89	14.1983
1191.27	15.7001
1194.64	15.509
1198.02	18.3119
1201.39	17.1195
1204.77	21.6555
1208.14	13.4563
1211.52	11.2254
1214.89	10.5292
1218.27	7.66894
1221.64	3.01123
1225.02	0.470459
1228.39	1.34979
1231.77	0.625793
1235.14	2.50763
1238.52	4.70813
1241.89	1.68347
1245.26	2.56012
1248.64	1.23639
1252.01	5.26404
1255.39	8.53113
1258.76	10.2863
1262.14	10.5872
1265.51	9.90546
1268.89	6.30475
1272.26	2.30536
1275.64	3.10321
1279.01	7.15698
1282.39	3.25568
