Measurement: Raman, 532 nm, unoriented, Raman Data Processed
Mineral: Laihunite
Rruff sample: R110051
Ideal chemistry: (Fe^3+^,Fe^2+^,[box])_2_SiO_4_
Locality: Laihe Fe deposit, Qianshan District, Anshan Prefecture, Liaoning Province, China
Source: Pingqu Fu
Description: Unconsolidated black subhedral grains. Type sample
Raman shift (cm-1)	intensity
179.684	0
182.577	35.616
185.469	115.092
188.362	159.195
191.255	151.895
194.147	128.176
197.04	151.884
199.933	196.73
202.825	238.016
205.718	260.376
208.611	234.309
211.504	193.961
214.396	152.862
217.289	107.898
220.182	71.1935
223.074	43.2402
225.967	29.9026
228.86	12.2621
231.752	6.31909
234.645	4.86926
237.538	6.71204
240.43	7.34351
243.323	4.49463
246.216	8.29407
249.109	8.27136
252.001	1.94409
254.894	9.92004
257.787	5.62817
260.679	4.86133
263.572	11.6332
266.465	28.3523
269.358	34.6529
272.25	54.4152
275.143	82.0327
278.036	94.0128
280.928	90.4225
283.821	73.7205
286.714	53.1796
289.606	46.3867
292.499	54.7476
295.392	75.712
298.284	91.0259
301.177	117.341
304.07	150.817
306.963	185.292
309.855	207.09
312.748	219.402
315.641	209.067
318.533	195.391
321.426	163.2
324.319	153.19
327.212	164.074
330.104	160.9
332.997	158.935
335.89	146.622
338.782	125.495
341.675	87.3611
344.568	66.7991
347.46	44.5707
350.353	35.9213
353.246	29.271
356.139	28.7073
359.031	26.757
361.924	25.0139
364.817	28.4314
367.709	14.3654
370.602	12.3661
373.495	8.22119
376.387	4.53735
379.28	10.973
382.173	5.00793
385.065	13.9229
387.958	7.77844
390.851	12.4622
393.744	11.0118
396.636	1.11975
399.529	13.618
402.422	3.87451
405.314	8.92236
408.207	4.16846
411.1	1.8916
413.993	4.43469
416.885	2.94678
419.778	2.24646
422.671	3.65295
425.563	4.11438
428.456	13.3331
431.349	11.8174
434.241	13.1018
437.134	16.6837
440.027	13.7592
442.92	20.2859
445.812	29.9199
448.705	26.5494
451.598	21.8518
454.49	14.3032
457.383	20.438
460.276	23.3885
463.168	19.8877
466.061	12.1735
468.954	16.1523
471.846	12.4479
474.739	2.95752
477.632	1.14429
480.525	8.53467
483.417	13.1368
486.31	7.66138
489.203	13.0282
492.095	10.7361
494.988	21.3816
497.881	27.4907
500.774	29.8933
503.666	33.0808
506.559	41.6483
509.452	39.9784
512.344	22.9508
515.237	19.9369
518.13	16.1592
521.022	7.57519
523.915	7.28332
526.808	4.43384
529.701	2.62476
532.593	0.476807
535.486	1.06384
538.379	4.03479
541.271	0.686523
544.164	11.0947
547.057	17.225
549.949	35.4762
552.842	58.9199
555.735	73.7681
558.628	97.2019
561.52	118.812
564.413	135.45
567.306	148.382
570.198	142.406
573.091	140.61
575.984	128.408
578.876	127.405
581.769	116.44
584.662	120.598
587.554	131.193
590.447	123.141
593.34	127.989
596.232	119.558
599.125	105.453
602.018	85.7198
604.911	64.3885
607.803	44.3213
610.696	44.3478
613.589	36.3307
616.481	22.8097
619.374	17.2111
622.267	11.9546
625.159	15.8878
628.052	5.06043
630.945	7.28772
633.838	4.81848
636.73	2.13708
639.623	7.49048
642.516	1.21643
645.408	7.21533
648.301	2.35205
651.194	6.46399
654.087	5.21069
656.979	1.8905
659.872	8.88867
662.765	5.77722
665.657	4.50537
668.55	7.92395
671.443	2.06958
674.335	11.3693
677.228	8.4596
680.121	10.1226
683.014	17.0212
685.906	13.6351
688.799	10.231
691.692	18.593
694.584	19.0798
697.477	18.053
700.37	11.4772
703.263	11.0846
706.155	12.0366
709.048	18.5631
711.941	9.99243
714.833	6.8302
717.726	0.584595
720.619	1.08276
723.511	8.83191
726.404	12.2151
729.297	12.2128
732.189	7.50684
735.082	1.64441
737.975	3.9397
740.868	1.99365
743.76	1.41174
746.653	0.752197
749.546	2.65137
752.438	6.22742
755.331	8.05676
758.224	3.45044
761.116	9.99597
764.009	13.3214
766.902	12.9281
769.795	24.4155
772.687	31.4281
775.58	39.5054
778.473	55.0295
781.365	65.3877
784.258	60.1917
787.151	58.3988
790.043	46.9147
792.936	44.6503
795.829	40.1023
798.722	27.8729
801.614	27.4882
804.507	14.6486
807.4	18.3066
810.292	7.36499
813.185	12.2074
816.078	10.1759
818.971	6.53064
821.863	13.1799
824.756	6.22461
827.649	0.704468
830.541	5.18848
833.434	1.34375
836.327	1.56482
839.219	4.9303
842.112	2.21484
845.005	0.76416
847.898	4.88562
850.79	3.46619
853.683	9.0481
856.576	9.10986
859.468	12.4653
862.361	18.5443
865.254	18.8187
868.146	14.3507
871.039	26.5205
873.932	24.4592
876.824	28.1464
879.717	28.6173
882.61	29.2063
885.503	42.943
888.395	54.641
891.288	63.167
894.181	70.0255
897.073	77.2473
899.966	80.2728
902.859	69.0602
905.751	65.7029
908.644	48.0416
911.537	30.8026
914.43	28.0767
917.322	28.9866
920.215	16.6897
923.108	18.0623
926	14.5692
928.893	23.2929
931.786	12.9369
934.678	17.1547
937.571	11.2741
940.464	16.7391
943.357	20.3397
946.249	11.8115
949.142	13.5792
952.035	13.2637
954.927	11.3456
957.82	16.0703
960.713	10.8485
963.606	18.3258
966.498	8.05017
969.391	9.40881
972.284	5.50378
975.176	6.51782
978.069	11.4855
980.962	8.4176
983.854	3.4082
986.747	0.329224
989.64	1.9342
992.533	9.98767
995.425	1.57996
998.318	8.63562
1001.21	2.02051
1004.1	0.713989
1007	5.97241
1009.89	2.86841
1012.78	2.70068
1015.67	0.774414
1018.57	3.526
1021.46	6.7583
1024.35	2.73853
1027.24	8.95264
1030.14	0.287598
1033.03	6.96118
1035.92	11.806
1038.82	0.383057
1041.71	5.98498
1044.6	0.790405
1047.49	2.9331
1050.39	2.79627
1053.28	11.519
1056.17	5.19788
1059.07	6.37048
1061.96	7.22607
1064.85	10.3409
1067.74	3.4353
1070.63	10.0872
1073.53	1.20056
1076.42	4.87146
1079.31	1.87305
1082.21	1.85596
1085.1	15.8253
1087.99	4.89929
1090.88	3.85754
1093.78	4.08765
1096.67	5.1687
1099.56	11.1384
1102.45	7.01526
1105.35	6.7511
1108.24	7.771
1111.13	8.77783
1114.03	8.10376
1116.92	15.0394
1119.81	10.2505
1122.7	8.98462
1125.6	9.85767
1128.49	4.91418
1131.38	7.54456
1134.28	4.34192
1137.17	0.637207
1140.06	6.99841
1142.95	6.37854
1145.85	6.68884
1148.74	7.86353
1151.63	9.7616
1154.52	11.6508
1157.42	1.55066
1160.31	11.0142
1163.2	4.08484
1166.09	6.58765
1168.99	4.67505
1171.88	10.0737
1174.77	9.47107
1177.66	9.60608
1180.56	23.2732
1183.45	11.1326
1186.34	11.2755
1189.24	8.57544
1192.13	5.99609
1195.02	8.50366
1197.91	9.64758
1200.81	6.7113
1203.7	2.29517
1206.59	12.5489
1209.48	9.53711
1212.38	8.07239
1215.27	10.7252
1218.16	6.20752
1221.06	0.5448
1223.95	0.598145
1226.84	4.80811
1229.73	7.74829
1232.63	4.19299
1235.52	2.11446
1238.41	1.9314
1241.31	4.48022
1244.2	10.2806
1247.09	2.82739
1249.98	4.32385
1252.88	7.80701
1255.77	15.1426
1258.66	3.62915
1261.55	4.9895
1264.45	12.6528
1267.34	6.5354
1270.23	10.3332
1273.12	1.60864
1276.02	3.91846
1278.91	5.34387
1281.8	9.07117
1284.69	6.48047
1287.59	0.189453
1290.48	4.16028
1293.37	1.91394
1296.27	7.93994
1299.16	3.76221
1302.05	3.48511
