Measurement: Raman, 780 nm, unoriented, Raman Data Processed
Mineral: Lammerite
Rruff sample: R140108
Ideal chemistry: Cu^2+^_3_(As^5+^O_4_)_2_
Locality: Veta Negra, Laurani District, Aroma Province, La Paz Department, Bolivia
Source: Rock Currier
Description: Massive green on a matrix consisting of quartz and anatase
Raman shift (cm-1)	intensity
117.594	0
120.969	0.438171
124.344	7.39844
127.719	5.95728
131.094	3.59668
134.468	0.157379
137.843	4.86401
141.218	8.71313
144.593	7.4372
147.968	6.46921
151.342	3.43729
154.717	4.91281
158.092	6.39801
161.467	8.36832
164.842	6.45615
168.216	5.12131
171.591	7.76718
174.966	7.00427
178.341	1.3483
181.716	2.17447
185.09	0.131454
188.465	2.51865
191.84	1.29984
195.215	6.91869
198.59	8.46465
201.965	10.4929
205.339	13.5451
208.714	14.7263
212.089	14.8873
215.464	13.3096
218.839	9.13489
222.214	8.10947
225.588	7.29941
228.963	7.29413
232.338	8.00134
235.713	8.74806
239.088	7.86711
242.462	8.67935
245.837	8.81915
249.212	8.06766
252.587	8.38509
255.962	9.54874
259.336	10.0137
262.711	10.3932
266.086	6.49052
269.461	4.35498
272.836	2.74686
276.211	0.31459
279.585	0.440613
282.96	1.09489
286.335	0.329788
289.71	1.67664
293.085	0.489395
296.459	3.86298
299.834	3.31677
303.209	2.81426
306.584	1.6315
309.959	1.5575
313.334	1.52187
316.708	3.60028
320.083	3.99471
323.458	5.05882
326.833	5.75012
330.207	8.14357
333.582	9.9799
336.957	11.2156
340.332	12.8612
343.707	14.1905
347.082	13.1339
350.456	10.2407
353.831	7.25534
357.206	4.5726
360.581	2.79767
363.956	0.551376
367.33	1.32397
370.705	1.70901
374.08	0.116531
377.455	1.01422
380.83	0.251541
384.205	0.08551
387.579	1.39142
390.954	0.372467
394.329	1.92511
397.704	1.77383
401.079	0.693954
404.453	0.113663
407.828	0.579422
411.203	0.282257
414.578	1.24725
417.953	1.12387
421.327	3.76035
424.702	3.02261
428.077	3.87056
431.452	4.92146
434.827	3.52193
438.202	3.32115
441.576	2.99155
444.951	3.58313
448.326	3.92836
451.701	5.16617
455.076	7.22354
458.45	8.73793
461.825	14.5353
465.2	16.8724
468.575	13.8576
471.95	10.1798
475.325	9.3214
478.699	10.0246
482.074	11.9045
485.449	12.3585
488.824	14.0821
492.199	11.6088
495.573	10.0617
498.948	7.26782
502.323	4.70316
505.698	3.35941
509.073	1.82442
512.447	1.79407
515.822	1.44371
519.197	1.59891
522.572	0.0177
525.947	0.863083
529.322	1.1712
532.696	0.023926
536.071	0.214249
539.446	0.011917
542.821	0.317078
546.196	1.06052
549.57	0.867088
552.945	1.12872
556.32	0.627075
559.695	1.05489
563.07	0.858246
566.444	1.81673
569.819	2.29174
573.194	2.06991
576.569	2.34304
579.944	1.73072
583.319	0.99482
586.693	0.111969
590.068	1.03368
593.443	0.851364
596.818	0.949318
600.193	0.305573
603.567	2.15537
606.942	0.411346
610.317	0.275116
613.692	0.619751
617.067	0.923218
620.442	0.506386
623.816	0.712891
627.191	1.6677
630.566	0.962975
633.941	2.15365
637.316	2.05187
640.69	3.33905
644.065	2.01804
647.44	2.38374
650.815	2.02472
654.19	1.76608
657.564	1.57081
660.939	2.03217
664.314	2.18598
667.689	1.72042
671.064	1.56496
674.439	1.98155
677.813	2.51209
681.188	1.26694
684.563	1.1216
687.938	0.35955
691.313	0.922562
694.688	0.296654
698.062	0.664116
701.437	0.963608
704.812	0.393097
708.187	1.47729
711.562	0.123741
714.936	0.030083
718.311	0.360771
721.686	0.105934
725.061	0.40255
728.436	0.67617
731.81	0.200531
735.185	1.16653
738.56	0.204887
741.935	1.01988
745.31	0.822495
748.684	0.801964
752.059	1.58145
755.434	0.809349
758.809	3.37334
762.184	3.58546
765.559	4.62146
768.933	5.3312
772.308	6.85622
775.683	4.73543
779.058	4.37846
782.433	5.64591
785.808	6.53301
789.182	10.568
792.557	12.5131
795.932	15.1415
799.307	17.7077
802.682	22.1638
806.056	29.5567
809.431	31.9666
812.806	29.166
816.181	20.6802
819.556	12.6678
822.93	9.03439
826.305	6.71088
829.68	4.95776
833.055	4.93034
836.43	5.89911
839.804	7.03742
843.179	10.3289
846.554	14.5753
849.929	18.3979
853.304	23.9516
856.679	28.3984
860.053	25.7624
863.428	15.8637
866.803	11.1767
870.178	7.64299
873.553	5.07008
876.927	4.48667
880.302	3.09189
883.677	2.2188
887.052	1.73697
890.427	0.463875
893.802	0.429733
897.176	0.531548
900.551	0.119026
903.926	0.191048
907.301	0.07412
910.676	0.624496
914.05	0.476952
917.425	0.083168
920.8	0.839516
924.175	0.399246
927.55	0.192909
930.924	0.361862
934.299	0.379478
937.674	0.156914
941.049	0.644196
944.424	1.07019
947.799	0.78231
951.173	0.396446
954.548	1.20293
957.923	1.18771
961.298	0.661522
964.673	0.600662
968.047	1.57905
971.422	1.06333
974.797	1.40003
978.172	0.239418
981.547	0.911507
984.922	0.459038
988.296	0.744545
991.671	0.646072
995.046	0.047028
998.421	1.45749
1001.8	1.0273
1005.17	1.08823
1008.54	0.73912
1011.92	0.672928
1015.29	1.53846
1018.67	0.934441
1022.04	1.18404
1025.42	1.50505
1028.79	1.78856
1032.17	1.44088
1035.54	3.28268
1038.92	2.10389
1042.29	2.15149
1045.67	1.13761
1049.04	1.54063
1052.42	1.69878
1055.79	1.82912
1059.17	1.17911
1062.54	1.44936
1065.92	1.20556
1069.29	0.796547
1072.67	0.843864
1076.04	1.44717
1079.42	0.082253
1082.79	1.12106
1086.17	0.694435
1089.54	0.205818
1092.92	0.215492
1096.29	0.106003
1099.66	0.634041
1103.04	0.689827
1106.41	0.143135
1109.79	0.998886
1113.16	0.210541
1116.54	1.44539
1119.91	0.396111
1123.29	0.347549
1126.66	0.097
1130.04	0.287422
1133.41	0.48452
1136.79	0.510139
1140.16	0.768204
1143.54	0.989525
1146.91	0.245552
1150.29	1.15044
1153.66	0.474815
1157.04	0.293449
1160.41	0.124016
1163.79	0.097374
1167.16	0.653992
1170.54	0.119064
1173.91	0.956642
1177.29	1.23147
1180.66	1.50465
1184.04	1.16396
1187.41	1.38201
1190.79	1.60931
1194.16	1.91827
1197.54	0.899406
1200.91	1.24021
1204.28	0.841141
1207.66	0.679909
1211.03	1.19827
1214.41	0.043167
1217.78	0.795097
1221.16	0.011063
1224.53	1.31319
1227.91	0.833557
1231.28	0.915062
1234.66	0.189156
1238.03	0.264648
1241.41	0.013123
1244.78	0.646606
1248.16	0.734863
1251.53	0.472069
1254.91	0.230507
1258.28	0.65712
1261.66	0.464813
1265.03	0.441055
1268.41	0.764519
1271.78	0.643959
1275.16	0.413795
1278.53	0.09565
1281.9	0.725006
