Measurement: Raman, 780 nm, unoriented, Raman Data Processed
Mineral: Langite
Rruff sample: R120042
Ideal chemistry: Cu^2+^_4_S^6+^O_4_(OH)_6_2H_2_O
Locality: Dunbrack mine, Musquodoboit Harbour, Halifax County, Nova Scotia, Canada
Source: Donald Doell
Description: Blue tabular crystals
Raman shift (cm-1)	intensity
109.442	0
112.817	0.315985
116.192	0.170462
119.566	1.36842
122.941	1.45795
126.316	1.32831
129.691	1.11036
133.066	0.944731
136.44	1.9017
139.815	1.97416
143.19	1.06721
146.565	0.973988
149.94	0.630632
153.315	1.3289
156.689	1.05236
160.064	1.50974
163.439	1.63559
166.814	1.96527
170.189	1.43568
173.563	1.50536
176.938	1.64682
180.313	0.272459
183.688	1.15049
187.063	0.886953
190.437	0.898909
193.812	0.09148
197.187	0.218258
200.562	0.736713
203.937	0.253651
207.311	0.724842
210.686	0.110649
214.061	0.917702
217.436	0.320959
220.811	1.74576
224.186	0.993509
227.56	0.573193
230.935	1.15443
234.31	1.35005
237.685	1.02549
241.06	2.11317
244.435	1.2855
247.809	1.81153
251.184	0.845383
254.559	1.59533
257.934	1.29698
261.309	0.137886
264.683	0.669603
268.058	1.34808
271.433	0.022509
274.808	0.81871
278.183	0.977253
281.558	1.10925
284.932	0.172592
288.307	0.187155
291.682	0.422369
295.057	1.26805
298.432	1.35197
301.806	0.934559
305.181	1.43789
308.556	1.39676
311.931	1.34268
315.306	1.77687
318.68	1.55829
322.055	1.02337
325.43	0.604891
328.805	0.23872
332.18	1.16943
335.555	0.534203
338.929	0.886496
342.304	1.63412
345.679	0.394876
349.054	0.573063
352.429	0.088997
355.803	1.25619
359.178	0.207428
362.553	0.053703
365.928	0.737017
369.303	0.685957
372.678	0.641766
376.052	0.076864
379.427	1.57705
382.802	1.16311
386.177	2.03909
389.552	1.06116
392.926	1.21022
396.301	1.14869
399.676	2.07099
403.051	1.973
406.426	2.44463
409.8	3.1849
413.175	3.3454
416.55	2.28545
419.925	0.733656
423.3	1.23693
426.675	0.522129
430.049	0.643078
433.424	1.22883
436.799	0.740044
440.174	1.57008
443.549	2.01137
446.923	2.71652
450.298	1.97816
453.673	3.11105
457.048	2.66252
460.423	2.45515
463.798	2.88516
467.172	2.04123
470.547	1.83465
473.922	1.60459
477.297	1.07214
480.672	0.653875
484.046	1.05938
487.421	1.17165
490.796	0.793468
494.171	0.682892
497.546	1.27386
500.921	1.9719
504.295	2.29997
507.67	1.69885
511.045	1.1705
514.42	1.0339
517.795	0.399983
521.169	0.256826
524.544	1.11762
527.919	0.770171
531.294	0.179695
534.669	0.065275
538.044	0.001916
541.418	1.05326
544.793	0.125104
548.168	0.051954
551.543	0.656206
554.918	0.093895
558.293	0.242831
561.667	0.318939
565.042	0.240836
568.417	0.80085
571.792	0.156117
575.167	0.273933
578.541	1.05115
581.916	0.945265
585.291	0.863416
588.666	1.04075
592.041	2.06653
595.415	1.86288
598.79	3.06303
602.165	2.08873
605.54	3.072
608.915	2.16574
612.29	2.37468
615.664	2.5315
619.039	3.03438
622.414	2.46586
625.789	1.37868
629.164	0.768949
632.538	1.2788
635.913	1.51641
639.288	0.318707
642.663	0.891675
646.038	0.953965
649.413	0.226837
652.787	0.863379
656.162	1.4394
659.537	0.404228
662.912	0.320722
666.287	0.660477
669.661	1.73338
673.036	1.22692
676.411	1.38921
679.786	1.01505
683.161	0.2548
686.535	1.62595
689.91	0.582625
693.285	1.20421
696.66	1.10348
700.035	0.233665
703.41	1.13993
706.784	0.455497
710.159	1.09232
713.534	0.863528
716.909	1.13763
720.284	0.707546
723.659	0.71279
727.033	0.422364
730.408	0.659101
733.783	0.868478
737.158	1.02895
740.533	0.518414
743.907	0.368693
747.282	0.686436
750.657	0.389645
754.032	0.30372
757.407	0.645895
760.782	0.589651
764.156	0.629745
767.531	0.861331
770.906	0.348577
774.281	0.488541
777.656	0.191982
781.03	0.060531
784.405	0.673208
787.78	0.348244
791.155	0.959222
794.53	0.652596
797.904	0.376707
801.279	0.557477
804.654	0.128094
808.029	0.399277
811.404	0.608918
814.779	0.543787
818.153	0.145111
821.528	0.527493
824.903	0.808534
828.278	0.494808
831.653	0.447645
835.028	1.04212
838.402	1.22175
841.777	0.48102
845.152	0.689616
848.527	0.482332
851.902	0.349628
855.276	0.120167
858.651	0.047885
862.026	0.628246
865.401	1.02832
868.776	0.650494
872.15	0.53869
875.525	0.043934
878.9	0.082661
882.275	0.435603
885.65	0.064639
889.024	0.005129
892.399	1.12392
895.774	1.06191
899.149	0.55935
902.524	1.05199
905.899	0.883326
909.273	0.942684
912.648	0.4776
916.023	0.691174
919.398	0.979396
922.773	0.679031
926.148	0.433895
929.522	0.976233
932.897	0.211758
936.272	0.748884
939.647	1.11661
943.022	0.603744
946.396	0.867387
949.771	0.680781
953.146	1.49816
956.521	2.09266
959.896	3.12041
963.27	4.0854
966.645	6.73334
970.02	10.0767
973.395	10.9454
976.77	10.8936
980.145	9.27567
983.519	6.28178
986.894	4.00456
990.269	2.57655
993.644	2.09526
997.019	1.82649
1000.39	1.25711
1003.77	0.498029
1007.14	0.367827
1010.52	1.07997
1013.89	0.420081
1017.27	0.22884
1020.64	0.38511
1024.02	0.42302
1027.39	1.13257
1030.77	0.828259
1034.14	0.730391
1037.52	0.402667
1040.89	0.143881
1044.27	0.944016
1047.64	0.416999
1051.02	0.885954
1054.39	0.204356
1057.77	0.408942
1061.14	1.35766
1064.52	0.498124
1067.89	1.45827
1071.27	0.32772
1074.64	0.969974
1078.01	0.631368
1081.39	0.227806
1084.76	1.04639
1088.14	1.13719
1091.51	0.576418
1094.89	0.837566
1098.26	0.639644
1101.64	0.331335
1105.01	0.039443
1108.39	0.175149
1111.76	0.488726
1115.14	0.220089
1118.51	0.567887
1121.89	0.159045
1125.26	0.540023
1128.64	0.316584
1132.01	0.568505
1135.39	0.601033
1138.76	0.448106
1142.14	0.303955
1145.51	0.826133
1148.88	0.863358
1152.26	0.713727
1155.63	0.025559
1159.01	0.169718
1162.38	1.11403
1165.76	1.09511
1169.13	0.59589
1172.51	0.552094
1175.88	0.994273
1179.26	0.089904
1182.63	0.597315
1186.01	0.74259
1189.38	0.583434
1192.76	0.414872
1196.13	0.147251
1199.51	0.696936
1202.88	1.26164
1206.26	0.45808
1209.63	0.373568
1213.01	0.456947
1216.38	0.262939
1219.76	0.701184
1223.13	0.529079
1226.51	1.02649
1229.88	0.063344
1233.26	1.70467
1236.63	1.20416
1240.01	0.717577
1243.38	0.377459
1246.76	0.467992
1250.13	0.504287
1253.51	0.977156
1256.88	0.635617
1260.25	0.003455
1263.63	0.079404
1267	0.753743
1270.38	0.60483
1273.75	1.29155
1277.13	0.795939
1280.5	1.18706
1283.88	0.33517
