Measurement: Raman, 532 nm, unoriented, Raman Data Processed
Mineral: Langbanite
Rruff sample: R100037
Ideal chemistry: Mn^2+^_4_Mn^3+^_9_Sb^5+^O_16_(SiO_4_)_2_
Locality: Langban, Filipstad, Varmland, Sweden
Source: William W Pinch
Description: Black metallic blocky crystals associated with pale red rhodonite R100038
Raman shift (cm-1)	intensity
173.898	0
176.791	0.00486
179.684	1.04933
182.577	2.00634
185.469	0.915615
188.362	1.12952
191.255	1.35122
194.147	2.17521
197.04	2.70152
199.933	1.99449
202.825	1.277
205.718	2.38129
208.611	0.026623
211.504	1.66461
214.396	0.039852
217.289	0.859051
220.182	2.3906
223.074	1.30895
225.967	2.63126
228.86	1.46477
231.752	3.26903
234.645	1.43222
237.538	1.9296
240.43	1.19328
243.323	1.52255
246.216	1.85501
249.109	2.67537
252.001	1.66072
254.894	1.42413
257.787	4.29656
260.679	4.96008
263.572	3.49011
266.465	2.75385
269.358	2.69411
272.25	2.7613
275.143	3.76526
278.036	4.4258
280.928	5.01481
283.821	5.08425
286.714	6.40713
289.606	8.00243
292.499	7.47557
295.392	8.8385
298.284	9.36679
301.177	10.6246
304.07	10.8559
306.963	9.59543
309.855	10.9798
312.748	8.21046
315.641	6.7349
318.533	7.37236
321.426	5.14956
324.319	4.56037
327.212	3.93255
330.104	2.25055
332.997	1.94007
335.89	1.22709
338.782	1.84414
341.675	2.32636
344.568	0.537603
347.46	0.868423
350.353	1.10118
353.246	0.769524
356.139	0.10568
359.031	0.910801
361.924	0.017622
364.817	0.279631
367.709	0.135984
370.602	0.442816
373.495	0.193388
376.387	2.09829
379.28	1.40969
382.173	0.174128
385.065	2.60633
387.958	1.619
390.851	2.28654
393.744	3.75123
396.636	2.45156
399.529	2.09334
402.422	3.70623
405.314	1.37735
408.207	2.49402
411.1	2.47292
413.993	2.3891
416.885	1.65284
419.778	2.78005
422.671	0.833979
425.563	0.821552
428.456	0.733639
431.349	0.486588
434.241	1.33567
437.134	0.663857
440.027	1.70663
442.92	1.08642
445.812	0.204838
448.705	0.444498
451.598	0.87026
454.49	1.23172
457.383	0.635273
460.276	1.36039
463.168	1.56008
466.061	0.068804
468.954	1.07378
471.846	2.55906
474.739	1.91195
477.632	2.04437
480.525	1.90292
483.417	3.4217
486.31	3.17341
489.203	5.90104
492.095	3.9486
494.988	6.40451
497.881	9.04743
500.774	11.77
503.666	17.2195
506.559	23.7198
509.452	29.8408
512.344	38.2399
515.237	48.4383
518.13	46.7344
521.022	40.6426
523.915	29.8571
526.808	20.0902
529.701	14.1677
532.593	9.4478
535.486	8.13952
538.379	6.38244
541.271	4.45966
544.164	1.90353
547.057	2.71516
549.949	1.29362
552.842	1.28667
555.735	1.12649
558.628	0.810572
561.52	0.12603
564.413	1.44447
567.306	1.11839
570.198	0.620686
573.091	1.96984
575.984	3.46192
578.876	2.89188
581.769	4.07921
584.662	4.33899
587.554	4.49573
590.447	5.37652
593.34	7.07768
596.232	9.37203
599.125	10.9469
602.018	12.1494
604.911	12.9872
607.803	14.9408
610.696	14.535
613.589	15.7212
616.481	13.862
619.374	12.3371
622.267	10.0636
625.159	7.82187
628.052	7.17415
630.945	3.37427
633.838	4.19686
636.73	3.00125
639.623	2.32427
642.516	0.625011
645.408	1.77685
648.301	0.729126
651.194	2.29106
654.087	0.210869
656.979	1.68708
659.872	2.28381
662.765	3.76479
665.657	1.67987
668.55	3.8949
671.443	4.55926
674.335	4.34918
677.228	3.86491
680.121	5.82456
683.014	5.1689
685.906	5.01513
688.799	3.59602
691.692	2.75164
694.584	3.32218
697.477	3.03537
700.37	2.9676
703.263	2.2933
706.155	2.22896
709.048	1.61065
711.941	0.509445
714.833	0.24165
717.726	0.358587
720.619	0.293447
723.511	0.344421
726.404	0.745739
729.297	0.679863
732.189	0.590456
735.082	0.993246
737.975	0.943239
740.868	0.392414
743.76	1.37442
746.653	0.593504
749.546	0.669155
752.438	0.269291
755.331	0.897867
758.224	0.823463
761.116	0.308609
764.009	0.244297
766.902	0.113529
769.795	0.832958
772.687	0.127104
775.58	1.23828
778.473	0.558903
781.365	1.57959
784.258	0.561144
787.151	1.04013
790.043	1.70787
792.936	0.31547
795.829	2.21756
798.722	0.988461
801.614	2.05212
804.507	1.11318
807.4	1.85329
810.292	0.687065
813.185	0.105225
816.078	1.54142
818.971	1.65825
821.863	1.51883
824.756	1.37087
827.649	1.70087
830.541	2.08945
833.434	1.66359
836.327	1.16132
839.219	1.69909
842.112	1.52965
845.005	1.38758
847.898	2.52986
850.79	0.1884
853.683	1.98602
856.576	2.52808
859.468	1.65022
862.361	2.64807
865.254	3.23268
868.146	2.56158
871.039	3.06135
873.932	4.28569
876.824	4.2786
879.717	3.07645
882.61	2.03167
885.503	1.36186
888.395	0.103512
891.288	0.393869
894.181	0.998682
897.073	0.840736
899.966	0.664753
902.859	0.488373
905.751	0.691498
908.644	0.50461
911.537	0.407358
914.43	0.928713
917.322	0.100973
920.215	1.08162
923.108	1.91269
926	1.01263
928.893	2.31945
931.786	1.59224
934.678	2.71899
937.571	1.98735
940.464	2.91697
943.357	2.77811
946.249	2.72195
949.142	3.09726
952.035	3.13732
954.927	4.60561
957.82	5.68324
960.713	3.20579
963.606	3.50355
966.498	3.82371
969.391	3.89933
972.284	3.80267
975.176	1.98118
978.069	2.87966
980.962	2.5743
983.854	1.43758
986.747	1.71598
989.64	1.85402
992.533	1.38232
995.425	0.591505
998.318	0.425327
1001.21	0.286753
1004.1	0.773811
1007	0.577669
1009.89	0.533146
1012.78	0.792589
1015.67	0.266062
1018.57	1.20582
1021.46	0.611944
1024.35	1.8044
1027.24	0.570366
1030.14	2.70763
1033.03	1.55538
1035.92	2.03929
1038.82	1.97487
1041.71	1.39817
1044.6	1.4863
1047.49	1.27181
1050.39	1.87943
1053.28	1.60168
1056.17	1.56657
1059.07	1.21343
1061.96	1.49726
1064.85	1.0103
1067.74	0.136229
1070.63	0.729605
1073.53	1.55755
1076.42	0.325792
1079.31	0.896574
1082.21	0.232088
1085.1	0.702551
1087.99	0.757166
1090.88	1.50651
1093.78	1.09442
1096.67	0.689491
1099.56	2.462
1102.45	0.444452
1105.35	0.304428
1108.24	2.3997
1111.13	1.88007
1114.03	0.035139
1116.92	2.05089
1119.81	2.23987
1122.7	0.909618
1125.6	0.265989
1128.49	0.521833
1131.38	2.08681
1134.28	0.367231
1137.17	1.4352
1140.06	0.409203
1142.95	0.411823
1145.85	0.983923
1148.74	1.17615
1151.63	0.041803
1154.52	0.936153
1157.42	1.05798
1160.31	1.49939
1163.2	1.56111
1166.09	0.210199
1168.99	0.639006
1171.88	0.4683
1174.77	0.731586
1177.66	1.00953
1180.56	0.777803
1183.45	1.92436
1186.34	2.36082
1189.24	1.25838
1192.13	1.89994
1195.02	1.16271
1197.91	2.15772
1200.81	0.11038
1203.7	0.834055
1206.59	2.2956
1209.48	1.06785
1212.38	2.04587
1215.27	2.16523
1218.16	0.318974
1221.06	0.911051
1223.95	0.856167
1226.84	1.73991
1229.73	1.50248
1232.63	1.12668
1235.52	0.701824
1238.41	0.995527
1241.31	1.37186
1244.2	0.854782
1247.09	1.06578
1249.98	0.990017
1252.88	1.91222
1255.77	1.68652
1258.66	0.981897
1261.55	1.07957
1264.45	1.32072
1267.34	1.3579
1270.23	0.413601
1273.12	0.860828
1276.02	0.739985
1278.91	0.702372
1281.8	2.49112
1284.69	0.905197
1287.59	0.018179
1290.48	1.00611
1293.37	1.24379
1296.27	1.12174
1299.16	0.034706
1302.05	0.53466
