Measurement: Raman, 780 nm, unoriented, Raman Data Processed
Mineral: Langbanite
Rruff sample: R050664
Ideal chemistry: Mn^2+^_4_Mn^3+^_9_Sb^5+^O_16_(SiO_4_)_2_
Locality: Langban, Filipstad, Varmland, Sweden
Source: University of Arizona Mineral Museum
Description: Black metallic crystals
Measured chemistry: (Mn^2+^_3.79_Ca_0.21_)_Σ=4_(Mn^3+^_6.45_Fe^3+^_2.55_)_Σ=9_Sb^5+^_1.00_O_16_(Si_1.00_O_4_)_2_
Raman shift (cm-1)	intensity
135.416	0
138.309	0.97739
141.201	0.860554
144.094	0.004208
146.987	1.34383
149.879	0.387449
152.772	0.814062
155.665	0.754833
158.557	0.048178
161.45	0.395889
164.343	0.827379
167.236	0.181715
170.128	0.891886
173.021	0.197363
175.914	0.115444
178.806	0.05965
181.699	0.143147
184.592	0.035652
187.484	0.077169
190.377	0.598507
193.27	0.30233
196.162	0.92473
199.055	0.162886
201.948	1.77886
204.841	0.065475
207.733	0.673782
210.626	1.5525
213.519	0.484545
216.411	0.512796
219.304	1.34989
222.197	1.38932
225.089	1.61286
227.982	1.15519
230.875	0.966105
233.768	1.47952
236.66	1.06877
239.553	2.13545
242.446	1.63333
245.338	1.04998
248.231	1.04419
251.124	1.13061
254.017	1.27012
256.909	0.992811
259.802	0.684938
262.695	1.06488
265.587	0.668905
268.48	0.537764
271.373	0.780951
274.265	0.465414
277.158	1.50699
280.051	2.39356
282.943	1.6527
285.836	2.45538
288.729	3.23959
291.622	3.36267
294.514	3.82326
297.407	5.11641
300.3	4.7371
303.192	5.03328
306.085	4.84084
308.978	3.63281
311.87	2.96442
314.763	2.73026
317.656	3.24656
320.548	3.24805
323.441	2.39203
326.334	1.44259
329.227	2.21244
332.119	1.06151
335.012	1.0207
337.905	0.392429
340.797	0.421038
343.69	0.430387
346.583	1.03736
349.476	0.329889
352.368	0.762336
355.261	0.297874
358.154	0.302669
361.046	0.192657
363.939	0.735675
366.832	0.998402
369.724	0.705543
372.617	1.3459
375.51	1.10454
378.402	0.751624
381.295	0.987897
384.188	1.09427
387.081	0.41779
389.973	1.0277
392.866	0.696751
395.759	1.04764
398.651	1.47868
401.544	1.49603
404.437	1.39401
407.329	1.44069
410.222	0.064679
413.115	0.74217
416.008	0.691865
418.9	0.241367
421.793	0.832965
424.686	0.782783
427.578	0.331947
430.471	0.461167
433.364	0.227956
436.257	0.024309
439.149	0.220754
442.042	0.776092
444.935	0.217776
447.827	0.165455
450.72	0.209917
453.613	0.524545
456.505	0.287175
459.398	0.360435
462.291	0.864028
465.183	0.131184
468.076	0.124724
470.969	0.408587
473.861	1.19169
476.754	1.18057
479.647	1.07715
482.54	0.877541
485.432	2.04812
488.325	2.00179
491.218	2.31388
494.11	2.37966
497.003	5.93475
499.896	6.73311
502.788	10.9898
505.681	13.87
508.574	18.2563
511.467	21.246
514.359	22.0503
517.252	19.961
520.145	15.2358
523.037	11.4177
525.93	8.32356
528.823	5.24874
531.716	4.54357
534.608	3.44192
537.501	2.71879
540.394	2.82348
543.286	1.87449
546.179	2.41784
549.072	0.953509
551.964	1.50616
554.857	1.0592
557.75	1.5064
560.643	1.14357
563.535	0.303031
566.428	0.932415
569.321	1.38377
572.213	0.656176
575.106	0.040231
577.999	0.224237
580.891	0.249269
583.784	0.266901
586.677	0.245732
589.569	0.287507
592.462	0.074883
595.355	0.647782
598.248	0.495239
601.14	0.70939
604.033	0.765805
606.926	0.366745
609.818	0.437732
612.711	1.1049
615.604	0.841639
618.496	0.841967
621.389	1.75465
624.282	1.25282
627.174	0.946506
630.067	0.351134
632.96	0.911624
635.853	0.368451
638.745	0.366024
641.638	0.330227
644.531	0.519625
647.423	0.398371
650.316	0.152452
653.209	1.07171
656.101	0.145727
658.994	0.36128
661.887	1.13237
664.78	1.25454
667.672	1.80558
670.565	1.54261
673.458	1.59584
676.35	1.51826
679.243	1.81281
682.136	2.36636
685.029	2.07233
687.921	1.73056
690.814	1.40055
693.707	1.11583
696.599	1.36116
699.492	0.82298
702.385	1.04705
705.277	1.21769
708.17	0.43207
711.063	1.78843
713.955	1.5197
716.848	1.56574
719.741	1.24004
722.634	1.03016
725.526	0.361019
728.419	0.797992
731.312	0.582302
734.204	1.07435
737.097	0.667451
739.99	0.197511
742.882	0.468966
745.775	0.469048
748.668	0.132571
751.561	0.17218
754.453	0.924105
757.346	0.334934
760.239	0.21676
763.131	0.693026
766.024	0.076944
768.917	0.512343
771.809	1.08676
774.702	0.952811
777.595	0.115495
780.487	0.699051
783.38	0.474996
786.273	0.607856
789.166	0.072206
792.058	1.10095
794.951	0.533623
797.844	0.85993
800.736	0.824061
803.629	0.038157
806.522	0.859348
809.414	1.25584
812.307	1.24462
815.2	1.06041
818.093	1.53568
820.985	0.979568
823.878	1.60668
826.771	0.496631
829.663	0.959348
832.556	0.903684
835.449	2.00051
838.341	1.62848
841.234	1.51587
844.127	1.24033
847.02	1.16142
849.912	1.4344
852.805	1.78499
855.698	0.971801
858.59	1.30752
861.483	2.4709
864.376	2.33039
867.269	3.01052
870.161	3.14191
873.054	3.78618
875.947	3.48899
878.839	3.43232
881.732	2.02051
884.625	2.00992
887.517	0.97298
890.41	0.326865
893.303	0.111173
896.195	0.630597
899.088	0.48129
901.981	0.028547
904.874	0.41312
907.766	0.771533
910.659	0.032765
913.552	1.14268
916.444	0.811206
919.337	0.513698
922.23	1.49453
925.122	1.39822
928.015	1.84834
930.908	2.90608
933.801	3.27527
936.693	4.37967
939.586	4.43319
942.479	5.47741
945.371	6.40387
948.264	5.70138
951.157	5.44526
954.049	4.05447
956.942	3.36079
959.835	2.60916
962.727	2.20877
965.62	2.25999
968.513	1.77408
971.406	1.78866
974.298	2.33805
977.191	1.52699
980.084	0.507678
982.976	0.243339
985.869	0.691228
988.762	0.497588
991.654	0.1865
994.547	0.091772
997.44	0.01774
1000.33	0.203192
1003.23	0.1285
1006.12	0.028202
1009.01	0.058469
1011.9	0.12655
1014.8	0.421497
1017.69	0.413709
1020.58	0.867481
1023.47	0.007229
1026.37	0.739198
1029.26	0.950171
1032.15	1.16933
1035.05	1.01011
1037.94	0.624477
1040.83	0.957071
1043.72	1.19356
1046.62	0.838331
1049.51	1.60117
1052.4	0.957836
1055.29	0.919165
1058.19	1.03169
1061.08	0.289693
1063.97	0.931451
1066.87	1.42309
1069.76	0.131815
1072.65	1.05012
1075.54	0.655226
1078.43	0.609711
1081.33	0.041644
1084.22	0.650392
1087.11	0.489772
1090.01	0.430476
1092.9	0.744091
1095.79	0.581838
1098.68	0.462795
1101.58	0.744785
1104.47	0.547067
1107.36	1.00053
1110.26	0.399021
1113.15	0.451055
1116.04	0.067676
1118.93	0.270123
1121.83	0.557558
1124.72	0.605819
1127.61	0.381242
1130.5	1.00779
1133.4	0.447505
1136.29	0.250532
1139.18	0.511475
1142.08	0.057814
1144.97	0.406063
1147.86	0.73224
1150.75	0.889609
1153.65	1.22809
1156.54	1.17682
1159.43	0.682446
1162.32	0.428479
1165.22	0.32609
1168.11	1.13734
1171	1.67841
1173.89	0.540078
1176.79	1.28003
1179.68	1.08918
1182.57	0.773134
1185.46	0.613904
1188.36	0.890237
1191.25	0.274181
1194.14	0.699782
1197.04	0.754104
1199.93	1.13789
1202.82	0.724386
1205.71	0.954347
1208.61	0.525821
1211.5	0.995377
1214.39	0.666173
1217.29	1.04728
1220.18	0.6466
1223.07	0.789977
1225.96	0.457457
1228.86	1.05198
1231.75	0.587632
1234.64	0.060039
1237.53	0.824165
1240.43	0.983012
1243.32	0.793367
1246.21	0.133418
1249.11	1.1478
1252	0.890713
1254.89	0.036338
1257.78	0.536441
1260.67	0.535062
1263.57	0.719218
1266.46	0.570864
1269.35	0.510745
1272.25	0.301971
1275.14	0.542428
1278.03	1.18237
1280.92	0.500858
1283.82	0.46387
