Measurement: Raman, 780 nm, unoriented, Raman Data Processed
Mineral: Langite
Rruff sample: R070316
Ideal chemistry: Cu^2+^_4_S^6+^O_4_(OH)_6_2H_2_O
Locality: Drakewalls mine, Gunnislake, Callington District, Cornwall, England
Source: James Shigley
Description: Pale greenish-blue tabular crystals associated with dark green brochantite
Raman shift (cm-1)	intensity
183.172	0
186.065	2.1623
188.957	1.87486
191.85	1.2721
194.743	1.48658
197.635	1.29653
200.528	3.18193
203.421	3.69865
206.313	0.159157
209.206	0.748863
212.099	1.49831
214.992	1.69521
217.884	0.438141
220.777	2.00633
223.67	3.5679
226.562	5.43488
229.455	2.63182
232.348	3.90369
235.24	5.72372
238.133	6.02324
241.026	7.46339
243.918	10.0486
246.811	5.11463
249.704	5.16003
252.597	6.01208
255.489	4.31728
258.382	2.83043
261.275	4.12978
264.167	2.43291
267.06	1.97525
269.953	4.93372
272.846	3.4955
275.738	3.32155
278.631	4.89213
281.524	4.05274
284.416	4.82893
287.309	6.84254
290.202	5.88188
293.094	3.40899
295.987	2.26186
298.88	0.08532
301.772	1.22864
304.665	0.262909
307.558	4.17411
310.45	1.22349
313.343	0.093277
316.236	5.15258
319.129	1.70039
322.021	3.42655
324.914	3.29987
327.807	2.3913
330.699	3.49461
333.592	4.08656
336.485	3.11689
339.377	3.44386
342.27	0.932396
345.163	2.04943
348.056	0.107132
350.948	2.31349
353.841	2.20678
356.734	1.32681
359.626	0.352768
362.519	0.557671
365.412	0.331362
368.305	0.714638
371.197	1.31763
374.09	0.45182
376.983	1.0929
379.875	2.94977
382.768	0.859337
385.661	0.832741
388.553	0.689667
391.446	0.005035
394.339	0.62677
397.231	0.01429
400.124	1.51884
403.017	1.69901
405.909	2.64247
408.802	0.897652
411.695	1.69549
414.588	3.25977
417.48	1.60135
420.373	4.43417
423.266	2.27866
426.158	5.47688
429.051	7.21255
431.944	8.4233
434.837	8.26886
437.729	9.93393
440.622	11.4765
443.515	9.81133
446.407	9.35271
449.3	8.3809
452.193	6.85582
455.085	6.09006
457.978	3.50525
460.871	3.87817
463.764	2.54519
466.656	1.87077
469.549	2.01794
472.442	3.13518
475.334	1.8507
478.227	3.43594
481.12	1.10915
484.012	3.64812
486.905	1.54153
489.798	1.96561
492.69	0.347534
495.583	3.86379
498.476	4.79001
501.369	3.36158
504.261	2.01686
507.154	3.23355
510.047	2.05637
512.939	2.50548
515.832	2.72623
518.725	3.15937
521.617	0.368874
524.51	1.61188
527.403	0.689003
530.296	2.27122
533.188	0.234711
536.081	0.152084
538.974	1.54337
541.866	0.357971
544.759	0.157799
547.652	1.43973
550.544	0.963287
553.437	1.57715
556.33	0.001991
559.222	1.71096
562.115	1.04755
565.008	1.17989
567.901	1.03689
570.793	0.661903
573.686	2.30987
576.579	1.01431
579.471	0.226364
582.364	0.416672
585.257	1.17628
588.149	1.46762
591.042	2.24328
593.935	0.859985
596.828	4.1329
599.72	1.83295
602.613	2.30232
605.506	1.92592
608.398	1.36006
611.291	1.02076
614.184	2.8423
617.077	4.43311
619.969	1.1591
622.862	4.57871
625.755	2.14449
628.647	2.02164
631.54	2.18219
634.433	1.75513
637.325	2.56494
640.218	0.517021
643.111	1.87308
646.004	2.70226
648.896	2.94618
651.789	3.16804
654.682	2.35196
657.574	2.6411
660.467	2.43301
663.36	1.48578
666.252	2.55786
669.145	1.65611
672.038	2.67755
674.931	0.610481
677.823	0.044983
680.716	2.79839
683.609	2.27948
686.501	1.82976
689.394	1.14446
692.287	2.39218
695.179	1.18382
698.072	0.710808
700.965	1.93689
703.857	1.91365
706.75	2.34649
709.643	4.40699
712.535	1.50997
715.428	2.28016
718.321	3.01074
721.214	3.73643
724.106	2.72959
726.999	3.00611
729.892	3.24058
732.784	3.36307
735.677	0.559429
738.57	1.51274
741.462	1.64957
744.355	2.61901
747.248	0.849606
750.141	1.37167
753.033	1.75975
755.926	0.040314
758.819	1.59842
761.711	0.856514
764.604	0.625816
767.497	1.13301
770.389	1.95609
773.282	0.245251
776.175	0.431831
779.068	1.37724
781.96	1.94869
784.853	0.960022
787.746	0.741364
790.638	3.3468
793.531	0.982189
796.424	2.6935
799.317	1.9301
802.209	3.18676
805.102	3.92481
807.995	5.35813
810.887	8.0985
813.78	10.7517
816.673	12.2673
819.565	11.0158
822.458	7.34619
825.351	3.51506
828.244	2.73723
831.136	2.98778
834.029	0.442825
836.922	1.49214
839.814	1.77509
842.707	0.448296
845.6	2.87901
848.492	0.230186
851.385	2.70481
854.278	0.921768
857.17	2.29806
860.063	2.18892
862.956	2.24742
865.849	1.76316
868.741	1.96059
871.634	2.04767
874.527	0.965572
877.419	0.272816
880.312	1.97643
883.205	2.24918
886.097	0.353745
888.99	2.31908
891.883	2.43375
894.775	0.364193
897.668	0.574444
900.561	0.826756
903.454	0.736732
906.346	1.60626
909.239	0.660995
912.132	2.01418
915.024	0.172676
917.917	1.36402
920.81	1.8037
923.702	1.55156
926.595	1.24041
929.488	1.20871
932.381	0.397175
935.273	2.1502
938.166	2.26477
941.059	1.50779
943.951	2.36856
946.844	1.72802
949.737	2.68425
952.63	2.83925
955.522	3.25393
958.415	5.66253
961.308	7.8922
964.2	10.7122
967.093	14.7406
969.986	17.5873
972.878	18.7372
975.771	12.9617
978.664	11.0804
981.557	7.97381
984.449	3.32319
987.342	4.37421
990.235	4.99363
993.127	5.17248
996.02	2.36753
998.913	1.73187
1001.8	1.73325
1004.7	1.66088
1007.59	0.216919
1010.48	2.99382
1013.38	2.03661
1016.27	3.54384
1019.16	1.49024
1022.05	1.71982
1024.95	0.493721
1027.84	0.0839
1030.73	0.434414
1033.62	1.07477
1036.52	1.573
1039.41	0.143246
1042.3	3.47932
1045.2	1.93555
1048.09	3.99484
1050.98	2.08243
1053.87	2.56729
1056.77	1.46962
1059.66	1.00038
1062.55	2.18631
1065.44	3.00007
1068.34	2.43378
1071.23	0.357979
1074.12	3.08986
1077.02	2.46275
1079.91	3.38386
1082.8	2.89473
1085.69	1.01832
1088.59	0.463257
1091.48	1.30631
1094.37	0.437721
1097.26	2.6733
1100.16	0.648441
1103.05	2.2489
1105.94	1.51687
1108.84	4.58451
1111.73	2.01745
1114.62	0.683033
1117.51	0.595314
1120.41	1.31613
1123.3	2.44437
1126.19	0.779877
1129.08	0.335911
1131.98	2.86739
1134.87	1.42763
1137.76	0.52142
1140.65	0.149773
1143.55	0.960743
1146.44	0.486691
1149.33	0.353146
1152.23	1.99196
1155.12	2.77256
1158.01	2.99719
1160.9	2.50911
1163.8	0.233139
1166.69	1.05397
1169.58	1.62725
1172.47	0.556171
1175.37	2.50829
1178.26	4.27438
1181.15	2.92204
1184.05	4.27764
1186.94	1.63639
1189.83	2.00455
1192.72	3.41907
1195.62	1.51467
1198.51	0.431355
1201.4	0.318748
1204.29	1.01903
1207.19	1.90712
1210.08	3.60546
1212.97	3.88302
1215.87	1.38249
1218.76	2.99812
1221.65	1.11758
1224.54	2.48143
1227.44	0.144718
1230.33	1.50365
1233.22	2.02516
1236.11	2.21956
1239.01	1.89435
1241.9	0.778572
1244.79	2.36845
1247.68	0.110584
1250.58	2.29853
1253.47	4.03248
1256.36	1.14936
1259.26	1.04315
1262.15	1.22071
1265.04	1.35982
1267.93	2.21569
1270.83	1.74076
1273.72	1.16885
1276.61	1.75211
1279.5	2.51416
1282.4	1.28706
