Measurement: Raman, 785 nm, unoriented, Raman Data Processed
Mineral: Langite
Rruff sample: R060090
Ideal chemistry: Cu^2+^_4_S^6+^O_4_(OH)_6_2H_2_O
Locality: Allihies mine, County Cork, Ireland
Source: University of Arizona Mineral Museum
Description: Blue skeletal prismatic crystals in snowflake-like groupings, associated with brochantite
Measured chemistry: Cu_4.00_(S_1.00_O_4_)(OH)_6_Â·2H_2_O ; darker phase: Cu_4_SO_4_(OH)_6_ ; lighter phase
Raman shift (cm-1)	intensity
176.945	0
179.838	14.5462
182.73	30.6688
185.623	28.9772
188.516	42.5565
191.408	32.251
194.301	43.3324
197.194	36.166
200.087	53.1695
202.979	21.2349
205.872	12.1544
208.765	23.5376
211.657	7.68665
214.55	9.88397
217.443	14.4945
220.335	15.3887
223.228	13.6582
226.121	12.5308
229.013	31.8084
231.906	37.0175
234.799	9.0022
237.692	28.2393
240.584	34.9291
243.477	19.6909
246.37	36.0899
249.262	16.5473
252.155	24.5265
255.048	19.2338
257.941	8.74188
260.833	33.0288
263.726	15.4846
266.619	38.9111
269.511	53.3728
272.404	18.0584
275.297	8.34644
278.19	2.73389
281.082	18.4326
283.975	5.93652
286.868	3.59961
289.76	17.4091
292.653	12.0507
295.546	17.0649
298.438	18.0908
301.331	6.72357
304.224	46.507
307.116	26.3123
310.009	29.6633
312.902	40.7167
315.795	51.5016
318.687	42.0573
321.58	43.653
324.473	39.3511
327.365	57.226
330.258	51.5115
333.151	58.7169
336.043	40.059
338.936	37.0633
341.829	34.2647
344.721	20.056
347.614	21.039
350.507	30.7567
353.4	32.224
356.292	15.8691
359.185	15.7293
362.078	7.1723
364.97	8.08771
367.863	10.8914
370.756	6.25995
373.649	1.98309
376.541	0.072327
379.434	1.82843
382.327	24.8377
385.219	29.7557
388.112	41.4598
391.005	82.6643
393.897	82.7598
396.79	101.084
399.683	135.585
402.575	137.817
405.468	171.613
408.361	208.232
411.254	224.447
414.146	282.309
417.039	266.361
419.932	306.127
422.824	338.581
425.717	390.327
428.61	406.259
431.502	407.363
434.395	410.456
437.288	384.513
440.181	366.013
443.073	316.197
445.966	274.066
448.859	232.763
451.751	191.698
454.644	156.667
457.537	105.348
460.43	82.0924
463.322	42.2484
466.215	52.6078
469.108	36.0281
472	26.7779
474.893	49.1808
477.786	49.3951
480.678	54.3765
483.571	46.4923
486.464	47.6612
489.356	86.5802
492.249	91.8326
495.142	92.9561
498.035	83.3188
500.927	119.032
503.82	92.2138
506.713	51.7275
509.605	82.4959
512.498	88.4944
515.391	69.23
518.284	52.5757
521.176	2.62866
524.069	33.6987
526.962	48.554
529.854	6.61707
532.747	12.144
535.64	20.3724
538.533	3.56891
541.425	24.1359
544.318	16.0165
547.211	11.8395
550.103	14.5984
552.996	0.376587
555.889	6.36261
558.781	35.4177
561.674	24.9764
564.567	25.3771
567.459	2.04553
570.352	7.59888
573.245	13.4199
576.138	4.37323
579.03	30.6389
581.923	23.1359
584.816	38.0836
587.708	61.8275
590.601	59.3655
593.494	76.007
596.386	80.5738
599.279	89.6815
602.172	132.131
605.064	94.5356
607.957	57.8488
610.85	113.786
613.743	68.8507
616.635	94.0922
619.528	90.6979
622.421	97.6919
625.313	56.9871
628.206	67.0245
631.099	69.4725
633.991	38.5547
636.884	10.227
639.777	35.6752
642.67	43.8821
645.562	35.2097
648.455	20.6729
651.348	43.0785
654.24	18.7183
657.133	2.85352
660.026	20.53
662.918	5.25586
665.811	9.3902
668.704	17.5643
671.597	14.9354
674.489	2.08283
677.382	33.0139
680.275	25.5901
683.167	23.4589
686.06	62.1373
688.953	2.98102
691.846	8.66779
694.738	12.1878
697.631	28.2784
700.524	38.6887
703.416	33.8556
706.309	27.7201
709.202	19.314
712.094	8.51825
714.987	43.0906
717.88	33.3655
720.773	36.937
723.665	23.2983
726.558	27.1787
729.451	33.1768
732.343	25.6948
735.236	23.3359
738.129	1.49316
741.021	39.8755
743.914	38.0277
746.807	46.8164
749.699	9.75134
752.592	39.772
755.485	6.37537
758.378	4.90509
761.27	23.0577
764.163	35.3842
767.056	39.4062
769.948	6.54333
772.841	28.9245
775.734	32.4658
778.626	6.10132
781.519	20.5158
784.412	8.97919
787.305	10.3561
790.197	23.0097
793.09	16.6439
795.983	32.2667
798.875	6.16974
801.768	1.93347
804.661	11.7268
807.553	28.4252
810.446	7.01746
813.339	1.86468
816.232	29.6031
819.124	10.3485
822.017	29.1664
824.91	16.5472
827.802	3.41235
830.695	19.8908
833.588	2.13232
836.481	0.302124
839.373	17.7787
842.266	17.5272
845.159	37.7172
848.051	41.0266
850.944	54.301
853.837	18.4888
856.729	31.2582
859.622	7.15247
862.515	0.377319
865.408	30.7662
868.3	43.0848
871.193	17.9961
874.086	12.6644
876.978	12.8615
879.871	23.6649
882.764	24.0753
885.656	15.3835
888.549	22.053
891.442	15.2379
894.335	21.1732
897.227	16.5249
900.12	32.1491
903.013	50.0586
905.905	17.6002
908.798	9.51642
911.691	3.72815
914.583	29.6952
917.476	1.48877
920.369	22.6407
923.261	28.8519
926.154	32.8494
929.047	26.879
931.94	16.7778
934.832	16.5314
937.725	21.5684
940.618	40.8182
943.51	64.651
946.403	44.0042
949.296	78.8969
952.188	106.886
955.081	203.072
957.974	354.852
960.867	528.169
963.759	781.017
966.652	1020.57
969.545	1129.04
972.437	1095.24
975.33	909.699
978.223	668.623
981.115	437.012
984.008	298.47
986.901	249.322
989.794	178.224
992.686	140.754
995.579	104.354
998.472	92.1686
1001.36	91.408
1004.26	49.5594
1007.15	67.8237
1010.04	45.6992
1012.93	85.6199
1015.83	22.1997
1018.72	54.7549
1021.61	4.73206
1024.51	12.0704
1027.4	13.5282
1030.29	33.919
1033.18	17.8672
1036.08	39.348
1038.97	42.2354
1041.86	22.0543
1044.76	21.357
1047.65	28.6803
1050.54	32.7615
1053.43	22.373
1056.33	0.367737
1059.22	20.833
1062.11	21.5301
1065	6.21228
1067.9	16.3836
1070.79	10.6198
1073.68	31.6122
1076.58	2.60406
1079.47	7.30603
1082.36	23.7044
1085.25	0.859253
1088.14	6.1604
1091.04	6.90595
1093.93	13.3023
1096.82	41.468
1099.72	4.03265
1102.61	33.0956
1105.5	49.1243
1108.39	36.9538
1111.29	41.8
1114.18	44.1093
1117.07	34.3079
1119.96	36.274
1122.86	20.8801
1125.75	40.3099
1128.64	0.834351
1131.54	20.5765
1134.43	31.3917
1137.32	23.9559
1140.21	51.8091
1143.11	53.9302
1146	7.20923
1148.89	42.8973
1151.79	42.5205
1154.68	36.4094
1157.57	14.0315
1160.46	41.6978
1163.36	36.1473
1166.25	16.2954
1169.14	26.6052
1172.03	7.50995
1174.93	44.3007
1177.82	60.387
1180.71	8.34699
1183.6	54.2499
1186.5	40.6302
1189.39	30.1287
1192.28	26.2671
1195.17	27.1882
1198.07	49.3199
1200.96	19.1756
1203.85	50.2075
1206.75	0.44574
1209.64	18.4683
1212.53	34.8414
1215.42	21.6954
1218.32	43.9136
1221.21	60.3599
1224.1	69.0726
1226.99	17.0286
1229.89	36.8297
1232.78	8.48413
1235.67	58.975
1238.57	37.4553
1241.46	20.7075
