Measurement: Raman, 780 nm, unoriented, Raman Data Processed
Mineral: Langbanite
Rruff sample: R100037
Ideal chemistry: Mn^2+^_4_Mn^3+^_9_Sb^5+^O_16_(SiO_4_)_2_
Locality: Langban, Filipstad, Varmland, Sweden
Source: William W Pinch
Description: Black metallic blocky crystals associated with pale red rhodonite R100038
Raman shift (cm-1)	intensity
119.496	0
122.871	3.2099
126.246	2.80437
129.62	0.459839
132.995	0.984024
136.37	2.98373
139.745	2.69508
143.12	2.69319
146.494	2.59309
149.869	0.220016
153.244	3.40259
156.619	0.020142
159.994	1.02789
163.369	0.014435
166.743	1.29106
170.118	0.376526
173.493	1.23582
176.868	0.997513
180.243	0.987381
183.618	2.33221
186.992	1.3894
190.367	0.886765
193.742	1.22183
197.117	3.37369
200.492	2.02777
203.866	1.27747
207.241	1.86145
210.616	1.85486
213.991	2.02039
217.366	2.18993
220.74	2.33086
224.115	4.42647
227.49	6.01933
230.865	5.67392
234.24	5.98273
237.615	7.9939
240.989	6.61735
244.364	7.74446
247.739	9.42258
251.114	10.0494
254.489	8.23708
257.863	8.4717
261.238	9.12422
264.613	9.6012
267.988	6.35004
271.363	11.1098
274.738	8.31245
278.112	10.0372
281.487	13.3672
284.862	12.7352
288.237	14.5928
291.612	16.36
294.986	13.8483
298.361	16.1973
301.736	14.6569
305.111	12.2378
308.486	10.0006
311.861	9.04528
315.235	6.72195
318.61	4.56119
321.985	2.53638
325.36	1.50616
328.735	1.92493
332.109	0.012024
335.484	0.045593
338.859	1.85804
342.234	1.67741
345.609	0.014305
348.984	0.627571
352.358	2.32211
355.733	1.93997
359.108	0.982224
362.483	2.64796
365.858	2.21651
369.233	2.60228
372.607	2.92918
375.982	4.14626
379.357	2.75598
382.732	0.990776
386.106	2.50265
389.481	3.47867
392.856	3.59612
396.231	4.17848
399.606	2.75419
402.981	3.609
406.355	1.76902
409.73	2.84669
413.105	1.56682
416.48	0.162697
419.855	0.680046
423.229	0.500809
426.604	3.09792
429.979	2.33872
433.354	0.8358
436.729	0.695114
440.104	1.85076
443.478	1.9242
446.853	0.114861
450.228	0.761505
453.603	0.082413
456.978	0.126953
460.353	4.03552
463.727	2.71797
467.102	2.17455
470.477	3.18317
473.852	3.29542
477.227	5.08731
480.601	5.00128
483.976	8.31224
487.351	11.7437
490.726	19.0492
494.101	27.167
497.476	37.9418
500.85	49.7811
504.225	57.1293
507.6	61.3357
510.975	59.2688
514.35	53.6745
517.724	39.3466
521.099	27.4179
524.474	18.2382
527.849	11.0573
531.224	8.74788
534.598	6.39519
537.973	4.6514
541.348	4.34986
544.723	0.102142
548.098	0.630753
551.472	0.454048
554.847	1.40259
558.222	0.112206
561.597	0.986603
564.972	0.291512
568.347	0.564964
571.721	3.1654
575.096	4.8453
578.471	4.05237
581.846	6.09051
585.221	7.74975
588.596	7.6795
591.97	8.49587
595.345	10.5744
598.72	11.2363
602.095	7.18041
605.47	10.2615
608.845	7.42999
612.219	9.72241
615.594	6.54208
618.969	5.07374
622.344	3.78743
625.719	1.26445
629.093	1.36407
632.468	1.11912
635.843	1.22189
639.218	1.11039
642.593	0.898933
645.967	0.333206
649.342	3.16756
652.717	3.28313
656.092	1.48762
659.467	3.11914
662.842	3.16841
666.216	3.19672
669.591	4.83902
672.966	2.35129
676.341	3.1051
679.716	2.56828
683.091	2.43767
686.465	2.18817
689.84	2.71761
693.215	2.6786
696.59	2.72149
699.965	1.6292
703.339	1.61269
706.714	0.130096
710.089	1.29391
713.464	0.36322
716.839	0.870636
720.213	0.146103
723.588	1.41476
726.963	0.210884
730.338	1.97562
733.713	1.84132
737.087	0.092209
740.462	2.46973
743.837	1.52256
747.212	0.028671
750.587	1.746
753.962	0.74752
757.336	0.921822
760.711	1.63464
764.086	1.40489
767.461	1.27366
770.836	2.95879
774.211	1.37926
777.585	1.03716
780.96	1.87946
784.335	0.533882
787.71	0.073006
791.085	2.26128
794.459	0.579247
797.834	2.37527
801.209	0.10817
804.584	1.05325
807.959	0.08181
811.333	1.71225
814.708	2.31593
818.083	0.459282
821.458	1.82259
824.833	2.5269
828.208	0.072495
831.582	2.19701
834.957	0.833321
838.332	0.984512
841.707	2.43322
845.082	0.605766
848.457	4.09481
851.831	2.93146
855.206	3.09652
858.581	3.10634
861.956	5.01031
865.331	4.0011
868.705	4.87483
872.08	4.5077
875.455	3.30483
878.83	2.39561
882.205	0.95298
885.58	1.04561
888.954	1.68358
892.329	0.839882
895.704	0.604645
899.079	1.03703
902.454	0.289406
905.828	0.855125
909.203	0.103355
912.578	0.45845
915.953	2.82134
919.328	1.80462
922.702	2.26592
926.077	2.08139
929.452	2.67013
932.827	3.33103
936.202	3.83462
939.577	5.38717
942.951	4.01406
946.326	3.5579
949.701	7.69157
953.076	3.10622
956.451	5.47129
959.825	5.04809
963.2	5.3603
966.575	2.4344
969.95	3.23134
973.325	2.72189
976.699	2.22066
980.074	2.86338
983.449	2.47318
986.824	0.449333
990.199	0.75441
993.574	1.54788
996.948	0.196434
1000.32	0.333206
1003.7	0.714241
1007.07	0.649277
1010.45	0.323296
1013.82	2.87833
1017.2	0.612198
1020.57	2.19582
1023.95	0.782326
1027.32	2.81139
1030.7	1.77698
1034.07	1.26598
1037.45	3.47599
1040.82	3.83012
1044.2	1.51314
1047.57	4.5481
1050.94	0.534164
1054.32	2.27706
1057.69	1.51139
1061.07	0.515373
1064.44	1.20986
1067.82	1.62062
1071.19	0.118164
1074.57	1.50861
1077.94	2.26313
1081.32	2.37475
1084.69	2.22397
1088.07	3.06891
1091.44	1.81819
1094.82	2.59558
1098.19	1.02709
1101.57	0.862343
1104.94	2.74351
1108.32	1.49867
1111.69	0.480415
1115.07	0.383194
1118.44	2.72189
1121.82	0.712341
1125.19	0.698257
1128.57	1.11603
1131.94	3.49915
1135.32	0.489143
1138.69	0.321095
1142.07	1.80205
1145.44	0.83989
1148.82	0.538918
1152.19	0.438381
1155.57	1.19281
1158.94	1.38352
1162.31	1.27881
1165.69	2.68947
1169.06	1.97182
1172.44	2.51382
1175.81	2.50927
1179.19	2.06868
1182.56	0.625278
1185.94	1.12777
1189.31	1.78967
1192.69	1.48028
1196.06	2.18804
1199.44	0.869312
1202.81	0.529705
1206.19	2.21111
1209.56	1.40526
1212.94	2.83013
1216.31	2.31033
1219.69	0.413891
1223.06	1.58013
1226.44	0.093483
1229.81	0.760689
1233.19	0.634689
1236.56	2.23265
1239.93	2.06879
1243.31	2.44361
1246.68	1.27235
1250.06	3.13652
1253.43	0.630226
1256.81	0.012074
1260.18	1.05066
1263.56	0.835178
1266.93	1.04642
1270.31	0.012199
1273.68	0.479095
1277.06	2.00322
1280.43	0.642811
1283.81	1.64478
