Measurement: Raman, 532 nm, unoriented, Raman Data Processed
Mineral: Larisaite
Rruff sample: R060879
Ideal chemistry: Na(H_3_O)(U^6+^O_2_)_3_(Se^4+^O_3_)_2_O_2_4H_2_O
Locality: Repete mine, San Juan County, Utah, USA
Source: Michael Scott
Description: Flattened aggregate of greenish yellow platy crystals
Raman shift (cm-1)	intensity
194.805	0
197.697	9.59375
200.59	73.9375
203.483	138.625
206.375	382.617
209.268	652.695
212.161	364.789
215.054	265.531
217.946	626.977
220.839	535.102
223.732	438.789
226.624	377.234
229.517	449.922
232.41	633.352
235.303	410.109
238.195	470.438
241.088	599.891
243.981	893.156
246.873	1116.34
249.766	1346.29
252.659	915.891
255.551	718.398
258.444	610.602
261.337	910.578
264.229	1309.32
267.122	1303.93
270.015	1262.48
272.908	881.266
275.8	1119.88
278.693	1169.94
281.586	1118.55
284.478	1281.34
287.371	825.508
290.264	968.977
293.156	305.188
296.049	164.312
298.942	29.4609
301.834	138.43
304.727	729.875
307.62	807.422
310.513	850.883
313.405	416.18
316.298	96.5078
319.191	25.1641
322.083	28.0781
324.976	47.8672
327.869	435.398
330.762	399.094
333.654	292.055
336.547	119.164
339.44	390.602
342.332	153.727
345.225	34.375
348.118	150.969
351.01	738.945
353.903	843.078
356.796	445.445
359.688	438.914
362.581	642.023
365.474	339.969
368.366	21.7891
371.259	116.531
374.152	165.891
377.045	41.9609
379.937	129.352
382.83	78.0156
385.723	189.461
388.615	639.914
391.508	738.586
394.401	744.82
397.293	781.797
400.186	818.727
403.079	1296.56
405.972	1847.12
408.864	2194.38
411.757	2889.94
414.65	3630.65
417.542	4135.6
420.435	4330.4
423.328	3843.08
426.221	3537.06
429.113	3011.71
432.006	2793.63
434.899	2327.08
437.791	1999.58
440.684	1746.3
443.577	1557.4
446.469	1410.44
449.362	941.945
452.255	1026.93
455.147	1086.75
458.04	969.523
460.933	817.461
463.826	827.594
466.718	1080.52
469.611	1204.91
472.504	1268.98
475.396	997.664
478.289	558.336
481.182	572.055
484.074	739.461
486.967	915.258
489.86	655.625
492.752	200.086
495.645	150.406
498.538	50.5312
501.431	115.07
504.323	77.7656
507.216	123.406
510.109	241.875
513.001	10.7969
515.894	68.9844
518.787	612.164
521.679	650.367
524.572	594.438
527.465	625.578
530.358	704.031
533.25	287.961
536.143	246.906
539.036	82.3359
541.928	389.219
544.821	497.305
547.714	503.844
550.606	493.523
553.499	546.375
556.392	238.422
559.284	269.742
562.177	230.75
565.07	529.719
567.963	458.75
570.855	681.719
573.748	431.555
576.641	365.422
579.533	71.7734
582.426	315.758
585.319	282.258
588.212	323.68
591.104	306.922
593.997	179.414
596.89	44.8828
599.782	89.3984
602.675	5.9375
605.568	192.164
608.46	226.602
611.353	356.07
614.246	446.445
617.139	236.461
620.031	391.359
622.924	618.328
625.817	528.453
628.709	393.391
631.602	94.3281
634.495	71.1172
637.387	62.3438
640.28	88.8906
643.173	82.5781
646.066	242.172
648.958	534.945
651.851	771.359
654.744	759.75
657.636	712.078
660.529	599.156
663.422	281.523
666.314	394.422
669.207	508.297
672.1	622.492
674.992	206.094
677.885	30.9219
680.778	49.5234
683.67	493.938
686.563	532.633
689.456	467.609
692.349	554.625
695.241	692.203
698.134	467.852
701.027	374.695
703.919	356.258
706.812	542.93
709.705	480.562
712.597	706.156
715.49	955.633
718.383	1298.48
721.276	1498.94
724.168	1715.52
727.061	1525.5
729.954	1745.9
732.846	1686.38
735.739	1529.74
738.632	1450.8
741.524	1326.95
744.417	1294.34
747.31	1360.02
750.203	1026.34
753.095	402.164
755.988	457.477
758.881	365.703
761.773	158.453
764.666	122.414
767.559	116.125
770.452	571.016
773.344	676.93
776.237	720.031
779.13	1212.33
782.022	2188.33
784.915	3180.84
787.808	4744.49
790.7	6663.8
793.593	8808.02
796.486	10454.7
799.378	11414.6
802.271	11371.3
805.164	9855.35
808.057	8250.75
810.949	7125.55
813.842	5588.54
816.735	4417.78
819.627	3379.22
822.52	2470.87
825.413	2093.05
828.305	1504.33
831.198	982.75
834.091	507.109
836.984	504.469
839.876	366.836
842.769	203.266
845.662	344.781
848.554	122.391
851.447	27.7188
854.34	89.2266
857.232	269.031
860.125	469.906
863.018	524.797
865.91	388.828
868.803	9.05469
871.696	231.945
874.589	95.9219
877.481	27.3516
880.374	113.125
883.267	164.656
886.159	575.062
889.052	361.32
891.945	611.641
894.837	893.445
897.73	1119.77
900.623	451.766
903.516	267.414
906.408	409.469
909.301	298.828
912.194	241.797
915.086	235.078
917.979	67.75
920.872	340.938
923.764	633.195
926.657	801.25
929.55	852.492
932.442	497.227
935.335	536.047
938.228	574.711
941.121	536.836
944.013	82.2891
946.906	3.05469
949.799	224.906
952.691	129.914
955.584	398.531
958.477	291.555
961.37	262.211
964.262	363.445
967.155	112.711
970.048	58.2812
972.94	270.648
975.833	144.047
978.726	394.75
981.618	550.195
984.511	257.164
987.404	177.141
990.296	198
993.189	34.3203
996.082	153.188
998.975	360.555
1001.87	509.57
1004.76	444.875
1007.65	241.125
1010.54	140.516
1013.44	388.164
1016.33	375.078
1019.22	266.586
1022.12	171.359
1025.01	715.883
1027.9	754.508
1030.79	477.523
1033.69	327.688
1036.58	631.297
1039.47	703.68
1042.37	539.695
1045.26	325.398
1048.15	175.141
1051.04	370.812
1053.94	604.57
1056.83	735.562
1059.72	436.758
1062.61	375.234
1065.51	174.625
1068.4	67.7734
1071.29	325.297
1074.18	228.641
1077.08	173.977
1079.97	210.164
1082.86	110.453
1085.76	178.492
1088.65	282
1091.54	249.336
1094.43	452.375
1097.33	612.234
1100.22	551.555
1103.11	719.242
1106	479.539
1108.9	508.695
1111.79	452.344
1114.68	230.867
1117.58	207.453
1120.47	139.867
1123.36	231.672
1126.25	103.539
1129.15	730.094
1132.04	535.844
1134.93	810.719
1137.82	462.93
1140.72	285.508
1143.61	483.328
1146.5	11.6875
1149.39	18.8359
1152.29	298.977
1155.18	276.578
1158.07	511.68
1160.97	492.984
1163.86	27.2109
1166.75	182.953
1169.64	93.5625
1172.54	309.219
1175.43	509.602
1178.32	376.203
1181.21	476.688
1184.11	825.266
1187	614.523
1189.89	357.766
1192.79	292.766
1195.68	401.078
1198.57	344.133
1201.46	363.883
1204.36	522.727
1207.25	411.359
1210.14	544.797
1213.03	395.992
1215.93	473.172
1218.82	375.797
1221.71	229.016
1224.61	185.508
1227.5	295.008
1230.39	399.75
1233.28	646.992
1236.18	650.969
1239.07	594.914
1241.96	535.062
1244.85	399.344
1247.75	706.984
1250.64	591.688
1253.53	479.07
1256.42	305.469
1259.32	416.828
1262.21	425.203
1265.1	44.7266
1267.99	180
1270.89	753.852
1273.78	980.828
1276.67	651.75
1279.57	329.602
1282.46	214.352
1285.35	172.188
1288.24	349.961
1291.14	17.5312
