Measurement: Raman, 785 nm, unoriented, Raman Data Processed
Mineral: Lavendulan
Rruff sample: R060716
Ideal chemistry: NaCaCu^2+^_5_(As^5+^O_4_)_4_Cl5H_2_O
Locality: Guanaco, Antofagasta Province, Chile
Source: Bob Jenkins
Description: Rosettes of blue platy crystals associated with dark green lammerite, R060715
Raman shift (cm-1)	intensity
157.686	0
160.579	64.7107
163.472	14.0454
166.364	207.259
169.257	503.74
172.15	515.286
175.042	469.269
177.935	316.738
180.828	152.864
183.721	92.5891
186.613	31.9314
189.506	5.70825
192.399	20.5869
195.291	47.9661
198.184	51.2437
201.077	88.0664
203.969	33.3272
206.862	25.4456
209.755	119.192
212.648	300.777
215.54	511.859
218.433	664.316
221.326	529.475
224.218	303.306
227.111	100.782
230.004	93.4128
232.896	64.1479
235.789	129.229
238.682	109.584
241.574	90.2461
244.467	98.7971
247.36	90.6284
250.253	25.2522
253.145	17.1536
256.038	5.4043
258.931	8.18921
261.823	21.4548
264.716	2.00147
267.609	8.81226
270.501	30.2539
273.394	51.4856
276.287	112.307
279.18	152.754
282.072	177.198
284.965	171.876
287.858	155.71
290.75	115.009
293.643	130.815
296.536	50.1714
299.428	104.327
302.321	117.279
305.214	115.989
308.107	93.6272
310.999	121.192
313.892	45.7405
316.785	93.8674
319.677	116.386
322.57	135.056
325.463	208.328
328.355	274.74
331.248	324.211
334.141	370.775
337.034	417.047
339.926	389.544
342.819	393.527
345.712	309.781
348.604	271.047
351.497	211.688
354.39	150.37
357.283	86.0562
360.175	51.6719
363.068	6.9375
365.961	8.74683
368.853	7.22021
371.746	4.80542
374.639	44.489
377.531	19.3281
380.424	4.4397
383.317	33.5542
386.21	77.4373
389.102	110.144
391.995	176.535
394.888	161.438
397.78	198.358
400.673	185.123
403.566	154.704
406.458	126.429
409.351	55.8809
412.244	96.4846
415.137	41.0537
418.029	59.6348
420.922	41.4182
423.815	48.0772
426.707	69.7131
429.6	112.182
432.493	53.9221
435.385	27.1492
438.278	35.498
441.171	17.427
444.064	52.627
446.956	47.6272
449.849	6.57617
452.742	40.6912
455.634	6.875
458.527	2.6272
461.42	56.7148
464.312	98.5149
467.205	126.915
470.098	206.961
472.991	238.961
475.883	285.991
478.776	224.828
481.669	175.054
484.561	140.579
487.454	135.476
490.347	114.976
493.239	36.4302
496.132	13.4519
499.025	9.03345
501.918	16.5552
504.81	3.27319
507.703	15.3406
510.596	94.5456
513.488	56.5366
516.381	90.2126
519.274	99.4248
522.166	188.262
525.059	223.708
527.952	353.197
530.844	408.136
533.737	516.404
536.63	659.421
539.523	784.137
542.415	851.466
545.308	860.299
548.201	781.934
551.093	679.529
553.986	614.433
556.879	492.748
559.771	392.969
562.664	313.311
565.557	140.422
568.45	151.033
571.342	73.592
574.235	99.0335
577.128	69.6228
580.02	67.781
582.913	25.3613
585.806	17.3635
588.699	40.9875
591.591	60.3496
594.484	0.532227
597.377	20.1616
600.269	5.93726
603.162	10.2876
606.055	10.769
608.948	8.68262
611.84	6.31323
614.733	53.6243
617.626	45.2451
620.518	58.4929
623.411	64.6926
626.304	71.4199
629.196	65.6023
632.089	57.8015
634.982	42.1216
637.875	53.8784
640.767	40.0518
643.66	13.7556
646.553	9.63232
649.445	43.7095
652.338	29.8604
655.231	50.8603
658.123	70.4661
661.016	83.781
663.909	15.5347
666.802	74.0269
669.694	69.5269
672.587	89.856
675.48	68.2534
678.372	54.6148
681.265	94.7908
684.158	54.4815
687.05	91.7964
689.943	122.903
692.836	51.8743
695.729	100.182
698.621	102.303
701.514	89.062
704.407	62.8977
707.299	52.5078
710.192	62.4568
713.085	55.9355
715.977	54.5872
718.87	30.5701
721.763	21.967
724.656	22.457
727.548	0.095947
730.441	10.8633
733.334	14.0564
736.226	5.93311
739.119	13.4793
742.012	6.90747
744.904	8.17407
747.797	26.0759
750.69	18.0332
753.583	10.1394
756.475	10.6853
759.368	44.0102
762.261	32.7156
765.153	34.1157
768.046	54.4255
770.939	126.3
773.831	153.667
776.724	151.667
779.617	134.183
782.51	157.435
785.402	161.965
788.295	135.345
791.188	119.714
794.08	167.368
796.973	147.992
799.866	102.543
802.758	37.7593
805.651	13.0007
808.544	7.31177
811.437	26.606
814.329	8.84448
817.222	1.30005
820.115	105.164
823.007	168.686
825.9	288.895
828.793	409.25
831.685	627.883
834.578	875.368
837.471	1267.66
840.364	1626.89
843.256	2006.5
846.149	2213.92
849.042	2255.36
851.934	2062.94
854.827	1707.18
857.72	1315.21
860.612	1031.84
863.505	841.755
866.398	738.625
869.291	695.287
872.183	634.609
875.076	571.917
877.969	479.789
880.861	395.024
883.754	335.744
886.647	266.991
889.539	200.3
892.432	178.176
895.325	213.994
898.218	186.391
901.11	274.266
904.003	324.633
906.896	332.395
909.788	313.908
912.681	261.453
915.574	156.635
918.466	111.245
921.359	33.6306
924.252	52.135
927.145	13.9775
930.037	28.2014
932.93	50.648
935.823	59.5344
938.715	24.6013
941.608	21.7498
944.501	22.3936
947.393	17.4785
950.286	33.2112
953.179	9.80493
956.072	10.9839
958.964	0.433105
961.857	19.4102
964.75	0.643066
967.642	17.0916
970.535	43.3267
973.428	19.3169
976.32	49.9951
979.213	77.0994
982.106	73.2903
984.999	10.7676
987.891	48.4273
990.784	49.0898
993.677	24.1384
996.569	92.6621
999.462	110.71
1002.36	164.63
1005.25	131.625
1008.14	103.639
1011.03	124.295
1013.93	50.2205
1016.82	82.8979
1019.71	87.3015
1022.6	87.7246
1025.5	11.0696
1028.39	66.1731
1031.28	80.542
1034.17	40.7783
1037.07	59.0703
1039.96	94.7986
1042.85	68.6301
1045.74	81.3835
1048.64	71.6743
1051.53	75.1099
1054.42	71.3064
1057.32	62.7678
1060.21	32.7207
1063.1	29.9907
1065.99	56.8503
1068.89	26.1111
1071.78	31.2017
1074.67	85.4751
1077.57	67.2251
1080.46	66.4653
1083.35	60.1226
1086.24	14.8318
1089.14	60.127
1092.03	93.6352
1094.92	64.5715
1097.81	80.0732
1100.71	70.7295
1103.6	50.3728
1106.49	49.7563
1109.38	32.3457
1112.28	15.54
1115.17	32.9004
1118.06	16.5205
1120.96	39.915
1123.85	53.2883
1126.74	56.0732
1129.63	29.2275
1132.53	29.3523
1135.42	24.3025
1138.31	16.0855
1141.2	24.1182
1144.1	26.0146
1146.99	15.7617
1149.88	42.0339
1152.78	10.1594
1155.67	23.3596
1158.56	31.1811
1161.45	26.7588
1164.35	1.3396
1167.24	12.6697
1170.13	74.7092
1173.02	4.82202
1175.92	32.5557
1178.81	29.5647
1181.7	9.91211
1184.6	6.75171
1187.49	24.1494
1190.38	22.6841
1193.27	36.3042
1196.17	3.93213
1199.06	14.0252
1201.95	25.6533
1204.84	30.2275
1207.74	7.42285
1210.63	28.7749
1213.52	10.2366
1216.41	10.2349
1219.31	50.7749
1222.2	39.0828
1225.09	34.4473
1227.98	36.7949
1230.88	29.9536
1233.77	37.2937
1236.66	37.6831
1239.56	0.913818
1242.45	35.4744
1245.34	19.2017
1248.23	6.58618
1251.13	34.5234
1254.02	31.5115
1256.91	31.8557
1259.81	2.30786
1262.7	28.4075
