Measurement: Raman, 780 nm, unoriented, Raman Data Processed
Mineral: Lavendulan
Rruff sample: R141212
Ideal chemistry: NaCaCu^2+^_5_(As^5+^O_4_)_4_Cl5H_2_O
Locality: Alice May mine, Ravensthorpe, Western Australia, Australia
Source: James Shigley
Description: Sprays of blue bladed crystals
Raman shift (cm-1)	intensity
103.131	0
106.505	1.59683
109.88	1.66563
113.255	0.504768
116.63	1.71002
120.005	1.68201
123.38	2.10313
126.754	6.9517
130.129	9.40006
133.504	4.12418
136.879	2.76242
140.254	3.53089
143.629	1.80922
147.003	1.94981
150.378	2.1137
153.753	1.5164
157.128	0.126207
160.503	0.599281
163.877	1.16457
167.252	0.284369
170.627	1.55905
174.002	4.50609
177.377	5.5603
180.751	4.7631
184.126	2.10276
187.501	1.8756
190.876	2.07373
194.251	1.71127
197.625	1.85404
201	2.34028
204.375	3.18239
207.75	2.60315
211.125	2.96048
214.5	3.10513
217.874	3.08388
221.249	2.36227
224.624	2.69965
227.999	2.43264
231.374	1.84562
234.749	1.75872
238.123	2.59971
241.498	2.61413
244.873	2.33055
248.248	2.05715
251.623	2.34315
254.997	1.51229
258.372	1.52847
261.747	2.14351
265.122	1.59413
268.497	1.42381
271.872	1.58085
275.246	1.44459
278.621	0.412601
281.996	0.555478
285.371	1.45425
288.745	0.470208
292.12	0.162622
295.495	0.308014
298.87	0.319757
302.245	0.208997
305.62	1.12998
308.994	0.903876
312.369	0.291896
315.744	0.408221
319.119	0.537362
322.494	0.551924
325.868	0.148255
329.243	1.35423
332.618	2.06372
335.993	2.29492
339.368	2.46952
342.743	2.83766
346.117	2.84563
349.492	2.6628
352.867	2.05858
356.242	1.42107
359.617	0.824573
362.991	0.788422
366.366	0.424837
369.741	0.681382
373.116	0.379286
376.491	0.858547
379.865	1.50873
383.24	0.72454
386.615	0.170962
389.99	0.521599
393.365	0.012563
396.74	1.06103
400.114	0.517445
403.489	0.4641
406.864	0.915925
410.239	1.61133
413.614	0.749889
416.988	0.355697
420.363	0.545711
423.738	0.504903
427.113	0.722931
430.488	0.68877
433.863	0.720542
437.237	0.92897
440.612	0.613271
443.987	1.82871
447.362	0.647002
450.737	0.144604
454.111	1.00864
457.486	0.56932
460.861	0.540821
464.236	0.798279
467.611	0.137236
470.986	0.614427
474.36	0.709561
477.735	0.712048
481.11	0.95546
484.485	0.725583
487.86	0.030057
491.234	0.768566
494.609	0.912015
497.984	0.593345
501.359	0.484459
504.734	0.575259
508.108	0.157027
511.483	0.345702
514.858	0.550103
518.233	0.358414
521.608	0.296624
524.982	0.86426
528.357	1.47104
531.732	1.82317
535.107	2.64373
538.482	4.68154
541.857	6.32871
545.231	6.28851
548.606	5.84454
551.981	4.86577
555.356	3.38392
558.731	2.15863
562.106	2.46512
565.48	1.14681
568.855	1.59628
572.23	0.83342
575.605	0.191285
578.98	0.2301
582.354	0.39777
585.729	0.681268
589.104	1.02591
592.479	0.045152
595.854	0.259553
599.229	0.597623
602.603	0.890721
605.978	0.261642
609.353	0.707345
612.728	0.507499
616.102	0.200494
619.477	0.630089
622.852	0.263199
626.227	0.575366
629.602	1.01442
632.977	0.580379
636.351	0.85529
639.726	0.222676
643.101	0.496798
646.476	0.590827
649.851	0.166043
653.226	0.614832
656.6	0.494021
659.975	0.064238
663.35	0.902566
666.725	0.793683
670.1	0.75864
673.474	1.26342
676.849	0.824181
680.224	1.27074
683.599	0.796358
686.974	1.17857
690.348	1.15838
693.723	1.15096
697.098	1.02567
700.473	0.206683
703.848	0.655891
707.222	1.22538
710.597	1.19588
713.972	0.752031
717.347	0.510608
720.722	0.549439
724.097	0.49354
727.471	0.2135
730.846	0.471002
734.221	0.800332
737.596	0.184878
740.971	0.499853
744.346	0.368596
747.72	0.519967
751.095	0.196817
754.47	0.410937
757.845	0.602364
761.22	0.056986
764.594	0.531782
767.969	0.115785
771.344	0.837582
774.719	0.608083
778.094	1.09264
781.468	0.209559
784.843	0.325397
788.218	0.845334
791.593	0.435246
794.968	0.731681
798.342	0.808458
801.717	1.15892
805.092	1.06704
808.467	1.12513
811.842	0.823973
815.217	0.038159
818.591	0.301873
821.966	0.129797
825.341	0.642139
828.716	1.32681
832.091	1.34014
835.466	2.03116
838.84	3.57387
842.215	5.77698
845.59	8.37114
848.965	13.5878
852.34	19.7628
855.714	27.2102
859.089	25.856
862.464	16.1106
865.839	9.0648
869.214	6.21907
872.588	3.80496
875.963	3.34422
879.338	3.42936
882.713	3.15349
886.088	3.4247
889.462	3.47658
892.837	2.82376
896.212	2.63523
899.587	1.35302
902.962	1.62707
906.337	2.32107
909.711	1.82916
913.086	1.42429
916.461	1.14899
919.836	0.545795
923.211	0.546584
926.585	0.462412
929.96	0.294257
933.335	0.434665
936.71	0.255527
940.085	0.233919
943.46	0.631851
946.834	0.21395
950.209	0.641885
953.584	0.698199
956.959	0.506429
960.334	0.347181
963.708	0.147257
967.083	0.32113
970.458	0.991023
973.833	1.01243
977.208	0.417271
980.582	0.067165
983.957	0.544353
987.332	0.39186
990.707	0.784199
994.082	0.954908
997.457	1.06078
1000.83	0.837677
1004.21	0.096689
1007.58	1.20235
1010.96	0.089158
1014.33	0.544644
1017.71	0.987906
1021.08	0.898345
1024.45	0.270528
1027.83	0.398706
1031.2	0.459698
1034.58	1.21234
1037.95	0.974667
1041.33	0.237875
1044.7	1.01208
1048.08	1.54321
1051.45	0.17123
1054.83	0.420997
1058.2	1.15299
1061.58	0.910406
1064.95	1.22771
1068.33	0.509011
1071.7	0.513896
1075.08	0.802282
1078.45	0.719491
1081.83	1.01433
1085.2	1.22842
1088.58	1.11582
1091.95	0.931947
1095.33	0.337408
1098.7	0.501193
1102.08	0.399443
1105.45	0.156488
1108.83	0.498874
1112.2	0.671623
1115.58	0.944912
1118.95	0.740583
1122.33	0.548428
1125.7	0.321625
1129.07	0.572693
1132.45	0.681218
1135.82	0.380452
1139.2	0.569396
1142.57	0.463927
1145.95	0.176494
1149.32	0.472939
1152.7	0.286281
1156.07	0.159154
1159.45	0.397616
1162.82	0.498275
1166.2	0.578231
1169.57	1.04315
1172.95	0.634748
1176.32	0.708281
1179.7	0.761195
1183.07	0.9492
1186.45	1.47856
1189.82	0.789495
1193.2	0.622703
1196.57	0.150763
1199.94	0.092065
1203.32	0.230794
1206.69	0.721938
1210.07	1.29794
1213.44	0.232956
1216.82	0.719116
1220.19	0.813391
1223.57	0.464418
1226.94	0.228083
1230.32	0.49326
1233.69	1.08064
1237.07	0.435514
1240.44	0.472724
1243.82	0.035791
1247.19	0.212189
1250.57	0.386319
1253.94	1.12895
1257.32	0.374522
1260.69	0.745423
1264.07	1.11701
1267.44	1.64586
1270.82	0.674329
1274.19	0.585898
1277.57	0.024593
1280.94	0.617379
1284.32	0.290464
