Measurement: Raman, 780 nm, unoriented, Raman Data Processed
Mineral: Lavinskyite
Rruff sample: R120057
Ideal chemistry: K(LiCu^2+^)Cu^2+^_6_(Si_4_O_11_)_2_(OH)_4_
Locality: Wessels mine, Kalahari manganese field, Northern Cape Province, South Africa
Source: William W. Pinch, Robert Lavinsky, and Marcus Origlieri
Description: Light blue plates, associated with R120019 wesselsite, and R120077 scottyite. This is the type sample.
Measured chemistry: (K_0.99_Ba_0.01_)_Σ=1.00_(Li_1.04_Cu_0.50_Mg_0.43_Na_0.10_Mn_0.01_)_Σ=2.08_Cu_6.00_Si_7.99_O_22_(OH)_4.00_  ; (Lavinskyite is the darkest material in the image)
Raman shift (cm-1)	intensity
104.138	0
107.513	5.9939
110.888	1.21191
114.263	9.86719
117.638	14.2288
121.013	12.5881
124.388	12.0898
127.762	2.63184
131.137	6.77771
134.512	12.4612
137.887	31.7439
141.262	49.4702
144.636	63.2904
148.011	73.1925
151.386	69.1753
154.761	56.45
158.136	41.9861
161.51	18.4248
164.885	9.57202
168.26	2.90478
171.635	0.070557
175.01	1.94727
178.385	2.42236
181.759	0.130005
185.134	2.42285
188.509	8.96143
191.884	14.7729
195.259	24.5626
198.633	36.019
202.008	48.082
205.383	65.7219
208.758	74.1991
212.133	71.3804
215.507	68.197
218.882	65.7955
222.257	63.902
225.632	62.1743
229.007	56.7974
232.382	54.5969
235.756	49.2432
239.131	43.1496
242.506	33.8824
245.881	28.6391
249.256	22.5488
252.631	16.6965
256.005	9.83063
259.38	7.99054
262.755	11.4456
266.13	5.54688
269.505	7.57025
272.879	3.31189
276.254	6.71411
279.629	4.43317
283.004	2.15643
286.379	1.33569
289.753	1.48859
293.128	0.169189
296.503	1.51099
299.878	2.05847
303.253	2.88782
306.628	2.46075
310.002	3.61609
313.377	5.95923
316.752	7.58075
320.127	5.86822
323.502	4.60669
326.877	6.8493
330.251	6.09979
333.626	7.6734
337.001	10.7311
340.376	8.78479
343.75	5.60901
347.125	5.47229
350.5	4.56677
353.875	3.29706
357.25	3.11005
360.625	1.31873
364	2.03119
367.374	2.02521
370.749	1.81012
374.124	2.16034
377.499	0.315613
380.873	0.884033
384.248	4.76477
387.623	5.53967
390.998	7.08374
394.373	8.07672
397.748	10.041
401.122	11.1395
404.497	13.9762
407.872	12.8931
411.247	17.7567
414.622	22.4301
417.997	23.8785
421.371	32.5606
424.746	32.6773
428.121	36.871
431.496	39.6155
434.871	46.2089
438.245	49.7402
441.62	47.3044
444.995	48.6267
448.37	41.7928
451.745	33.2504
455.12	26.1967
458.494	22.4945
461.869	17.0291
465.244	17.2948
468.619	20.2406
471.994	11.3423
475.368	11.6711
478.743	11.0607
482.118	13.6798
485.493	11.1293
488.868	11.4252
492.243	8.60584
495.617	9.20148
498.992	9.62122
502.367	13.9224
505.742	7.62256
509.117	3.57074
512.491	6.08807
515.866	5.24872
519.241	1.04932
522.616	3.57867
525.991	1.18695
529.365	3.11847
532.74	1.93494
536.115	2.98792
539.49	2.26373
542.865	1.84436
546.24	3.46649
549.614	2.76294
552.989	2.32043
556.364	2.85156
559.739	2.37708
563.114	0.474854
566.489	0.093262
569.863	0.349609
573.238	1.32513
576.613	0.059265
579.988	0.045471
583.362	0.487183
586.737	1.83173
590.112	0.36853
593.487	1.77307
596.862	3.34503
600.237	4.10364
603.611	5.29657
606.986	2.82391
610.361	3.91919
613.736	2.69962
617.111	5.24686
620.486	4.28461
623.86	6.20798
627.235	6.58063
630.61	2.90369
633.985	5.39072
637.36	4.90918
640.734	5.38937
644.109	4.58835
647.484	10.2885
650.859	6.81085
654.234	6.44437
657.609	14.5899
660.983	18.3715
664.358	23.7228
667.733	32.1533
671.108	43.2123
674.483	54.2785
677.857	64.2241
681.232	65.0485
684.607	52.8992
687.982	39.4921
691.357	27.495
694.731	16.1786
698.106	11.9784
701.481	8.43494
704.856	7.41394
708.231	5.62683
711.606	2.11118
714.98	1.15277
718.355	0.022095
721.73	0.706665
725.105	2.00574
728.48	0.162506
731.855	2.6373
735.229	1.86853
738.604	1.2619
741.979	1.49637
745.354	1.82013
748.729	3.14343
752.103	7.84579
755.478	7.14688
758.853	6.75882
762.228	7.16702
765.603	7.02365
768.977	5.30835
772.352	6.14432
775.727	3.03015
779.102	3.96133
782.477	2.88165
785.852	3.83591
789.226	1.21646
792.601	1.75046
795.976	1.44263
799.351	0.591644
802.726	0.966858
806.101	0.733063
809.475	2.0705
812.85	0.031189
816.225	2.50446
819.6	3.20215
822.975	1.60358
826.349	3.61966
829.724	2.64972
833.099	2.10364
836.474	1.59799
839.849	2.88956
843.223	2.48953
846.598	2.76385
849.973	2.62631
853.348	1.99414
856.723	3.63113
860.097	2.92761
863.472	2.2782
866.847	2.24817
870.222	2.6409
873.597	4.42456
876.972	3.75497
880.346	5.67535
883.721	3.49973
887.096	6.07974
890.471	3.70682
893.846	2.67966
897.221	0.297607
900.595	2.55963
903.97	1.35718
907.345	1.978
910.72	3.54806
914.095	2.51898
917.469	2.46127
920.844	6.37534
924.219	1.22296
927.594	0.774811
930.969	0.923401
934.343	2.13831
937.718	1.33032
941.093	2.49457
944.468	0.364807
947.843	0.161804
951.218	0.031189
954.592	1.51498
957.967	1.2876
961.342	2.35123
964.717	1.84457
968.092	2.52167
971.466	1.66711
974.841	1.85111
978.216	0.911865
981.591	0.003479
984.966	0.529846
988.341	1.39136
991.715	0.066315
995.09	0.850098
998.465	0.181915
1001.84	0.799408
1005.22	0.053711
1008.59	1.89261
1011.96	1.38849
1015.34	1.61658
1018.71	5.37283
1022.09	4.28326
1025.46	4.16428
1028.84	4.7868
1032.21	6.44534
1035.59	6.53305
1038.96	4.65613
1042.34	2.33148
1045.71	1.74323
1049.09	1.18106
1052.46	0.790649
1055.84	3.51114
1059.21	2.08679
1062.59	2.8775
1065.96	2.18167
1069.34	3.52554
1072.71	5.94721
1076.09	6.85898
1079.46	8.4689
1082.84	7.00851
1086.21	8.59756
1089.59	8.31702
1092.96	7.09921
1096.34	8.42914
1099.71	6.04706
1103.08	3.71149
1106.46	3.67709
1109.83	3.03986
1113.21	2.12106
1116.58	2.09137
1119.96	1.39911
1123.33	1.37286
1126.71	0.580872
1130.08	0.682831
1133.46	1.88464
1136.83	2.16861
1140.21	1.03384
1143.58	0.307068
1146.96	0.147583
1150.33	0.404846
1153.71	0.930084
1157.08	0.959381
1160.46	0.16275
1163.83	2.47256
1167.21	3.71036
1170.58	3.79877
1173.96	3.16876
1177.33	5.35529
1180.7	4.54315
1184.08	4.75784
1187.45	6.94254
1190.83	5.12521
1194.2	7.40976
1197.58	6.13498
1200.95	6.29623
1204.33	6.78406
1207.7	5.76428
1211.08	1.98383
1214.45	5.34537
1217.83	2.56473
1221.2	2.04147
1224.58	0.332397
1227.95	0.754089
1231.33	1.54965
1234.7	1.47611
1238.08	1.2254
1241.45	2.04153
1244.83	2.11349
1248.2	5.05035
1251.58	3.67111
1254.95	4.43597
1258.33	7.4801
1261.7	7.43085
1265.08	6.08881
1268.45	5.53424
1271.83	4.88861
1275.2	2.88415
1278.58	4.12726
1281.95	3.48859
1285.32	0
