Measurement: Raman, 532 nm, unoriented, Raman Data Processed
Mineral: Leucophanite
Rruff sample: R060199
Ideal chemistry: NaCaBeSi_2_O_6_F
Locality: Mont Saint-Hilaire, Rouville County, Quebec, Canada
Source: Royal Ontario Museum
Description: Gray colored transparent fragment
Measured chemistry: Ca_2.00_Na_2.00_Be_2.00_Si_4.00_O_12_F_2.00_ ; Be not measured but estimated by difference and charge balance
Raman shift (cm-1)	intensity
173.286	0
176.178	2.53906
179.071	98.875
181.964	104.754
184.856	273.758
187.749	229.414
190.642	180.062
193.535	311.969
196.427	258.961
199.32	501.41
202.213	353.211
205.105	204.043
207.998	111.988
210.891	94.293
213.783	47.7422
216.676	39.6523
219.569	202.34
222.462	156.68
225.354	435.66
228.247	325
231.14	301.301
234.032	244.438
236.925	472.621
239.818	728.731
242.71	626.836
245.603	594.07
248.496	525.082
251.388	433.269
254.281	157.625
257.174	102.543
260.067	87.1602
262.959	140.023
265.852	275.688
268.745	250.098
271.637	408.293
274.53	1107.52
277.423	886.465
280.315	455.887
283.208	20.1016
286.101	30.9375
288.994	41.6953
291.886	35.418
294.779	15.8867
297.672	64.9844
300.564	151.356
303.457	586.832
306.35	1064.04
309.243	1885.61
312.135	2237.5
315.028	2944.59
317.921	2583.96
320.813	2758.06
323.706	1970.09
326.599	1525.81
329.491	1545.55
332.384	2003.13
335.277	2809.61
338.17	3577.91
341.062	3968.33
343.955	4231.27
346.848	4380.19
349.74	5020.69
352.633	6166.88
355.526	6514.12
358.418	7175.16
361.311	7276.03
364.204	7256.72
367.097	5773.52
369.989	4824.08
372.882	4306.94
375.775	3980.48
378.667	3133.91
381.56	2276.55
384.453	1182.16
387.346	65.0078
390.238	319.266
393.131	315.086
396.024	75.8672
398.916	654.703
401.809	1292.15
404.702	2185.72
407.594	2561.17
410.487	2248.2
413.38	1696.8
416.272	1058.97
419.165	1355.3
422.058	1489
424.951	1837.52
427.843	2198.88
430.736	2610.73
433.629	3210.22
436.521	3024.49
439.414	2293.66
442.307	1912.49
445.2	1244.42
448.092	712.195
450.985	357.539
453.878	310.703
456.77	365.016
459.663	282.094
462.556	193.391
465.448	393.742
468.341	750.211
471.234	1075.05
474.127	568.141
477.019	95.3828
479.912	29.2188
482.805	26.0234
485.697	677.617
488.59	1626.03
491.483	2671.44
494.375	4002.08
497.268	4907.85
500.161	5614.88
503.053	5698.73
505.946	5047.27
508.839	4462.76
511.732	3727.53
514.624	3036.83
517.517	2557.86
520.41	2245.17
523.302	2324.25
526.195	2911.7
529.088	3351.45
531.981	3247.62
534.873	3452.44
537.766	2836.44
540.659	2550.42
543.551	1931.51
546.444	1613.16
549.337	1682.27
552.229	1891.16
555.122	2193.53
558.015	2093.95
560.908	2134.49
563.8	2184.67
566.693	1570.8
569.586	678.055
572.478	273.195
575.371	159.07
578.264	27.4766
581.156	76.5625
584.049	503.891
586.942	166.703
589.835	14.0938
592.727	241.633
595.62	330.75
598.513	1205.64
601.405	1573.82
604.298	1719.52
607.191	2061.88
610.083	2253.3
612.976	2387.75
615.869	1939.02
618.762	1867.97
621.654	2035.34
624.547	1682.66
627.44	1469.27
630.332	944.547
633.225	1139.94
636.118	845.641
639.01	966.852
641.903	730.859
644.796	607.156
647.689	882.531
650.581	773.438
653.474	1147.81
656.367	1641.23
659.259	2444.19
662.152	3594.73
665.045	6845.81
667.938	10045.8
670.83	14169.3
673.723	17961.3
676.616	18996.7
679.508	13786.8
682.401	7979.77
685.294	4584.92
688.186	2998.38
691.079	2559.3
693.972	2667.98
696.865	3024.69
699.757	3572.78
702.65	4450.53
705.543	4874.78
708.435	3781.08
711.328	2377.56
714.221	1272.64
717.113	806.797
720.006	271.609
722.899	161.766
725.792	59.5
728.684	188.844
731.577	307.078
734.47	106.797
737.362	115.156
740.255	182.359
743.148	98.0312
746.04	182.391
748.933	42.4375
751.826	210.422
754.719	321.984
757.611	124.078
760.504	778.562
763.397	875.688
766.289	695.922
769.182	449.703
772.075	308.797
774.967	22.9375
777.86	147
780.753	46.4219
783.646	25.9844
786.538	162.344
789.431	524.359
792.324	673.109
795.216	592.047
798.109	1222.36
801.002	962.234
803.894	1242.81
806.787	1261.77
809.68	1344.39
812.573	1182.91
815.465	798.812
818.358	764.969
821.251	507.203
824.143	423.453
827.036	458.656
829.929	662.766
832.822	754.703
835.714	1134.27
838.607	1540.11
841.5	1920.34
844.392	3170.7
847.285	4159.17
850.178	5237.09
853.07	6339.98
855.963	6770.75
858.856	7100.84
861.749	6017.05
864.641	4852.59
867.534	3925.92
870.427	2496.41
873.319	2446.8
876.212	2277.23
879.105	2189.84
881.997	1310.88
884.89	1054.98
887.783	1102.66
890.676	630.328
893.568	707.625
896.461	883.844
899.354	1103.03
902.246	1289.92
905.139	1306.56
908.032	1123.16
910.924	1247.55
913.817	1328.73
916.71	1815.23
919.602	1363.2
922.495	1354.11
925.388	1217.7
928.281	635.156
931.173	266.125
934.066	260.453
936.959	406.062
939.851	67.6094
942.744	388.078
945.637	101.984
948.529	45.4375
951.422	205.141
954.315	361.953
957.208	105.531
960.1	82.1562
962.993	859.859
965.886	1466.14
968.778	1052.5
971.671	483.688
974.564	443.031
977.457	222.406
980.349	660.688
983.242	959.469
986.135	1574.33
989.027	2364.09
991.92	3391.8
994.813	3860.47
997.705	5152.25
1000.6	6156.06
1003.49	7407.56
1006.38	8128.81
1009.28	9716.03
1012.17	11764.1
1015.06	14422.5
1017.95	18632.6
1020.85	24045.9
1023.74	28215.6
1026.63	29027.6
1029.53	28004.3
1032.42	30299.8
1035.31	33353.2
1038.2	36953.7
1041.1	40614.2
1043.99	44364
1046.88	48284.8
1049.77	51123.2
1052.67	52544
1055.56	52711.2
1058.45	51426.1
1061.35	48213.6
1064.24	44160.7
1067.13	39240
1070.02	33991.2
1072.92	29068.8
1075.81	24307.6
1078.7	19500
1081.59	15338.6
1084.49	11818.2
1087.38	9159.59
1090.27	6728.12
1093.16	5504.53
1096.06	3909.22
1098.95	3330.28
1101.84	1754.25
1104.73	1605.19
1107.63	1251.53
1110.52	1241.78
1113.41	1236.88
1116.31	1193.22
1119.2	698.438
1122.09	117.969
1124.98	328.438
1127.88	673.375
1130.77	935.875
1133.66	685.062
1136.56	68.7188
1139.45	183.719
1142.34	77.5625
1145.23	477.844
1148.13	786.562
1151.02	1635.38
1153.91	1530.53
1156.8	1980.94
1159.7	2346
1162.59	2454.88
1165.48	2738.59
1168.38	3104.69
1171.27	2454.84
1174.16	2981.25
1177.05	3523.12
1179.95	3500.81
1182.84	3611
1185.73	3025.59
1188.62	3664
1191.52	3704.72
1194.41	4422.22
1197.3	4327.34
1200.19	4912.06
1203.09	5484.53
1205.98	5409.78
1208.87	6486.31
1211.77	6534.06
1214.66	5965.03
1217.55	6016.81
1220.44	6029.53
1223.34	5868.62
1226.23	5405.88
1229.12	5388.44
1232.01	4986.19
1234.91	4977.09
1237.8	4888.19
1240.69	4565.41
1243.59	4567.72
1246.48	4108.03
1249.37	3831.72
1252.26	3802.75
1255.16	3577.38
1258.05	3271.88
1260.94	3575.03
1263.83	3425.5
1266.73	2970.59
1269.62	2315.81
1272.51	2550.53
1275.4	2244.31
1278.3	1728.25
1281.19	1584.25
1284.08	1176.78
1286.98	542.812
1289.87	795.719
1292.76	158.062
1295.65	514.219
1298.55	266.188
1301.44	371.375
1304.33	26.125
