Measurement: Raman, 514 nm, unoriented, Raman Data Processed
Mineral: Leucite
Rruff sample: R040107
Ideal chemistry: K(Si_2_Al)O_6_
Locality: Roccamonfina, Italy
Source: University of Arizona Mineral Museum
Description: Rounded colorless crystals embedded in an ash matrix
Measured chemistry: (K_0.95_Na_0.03_)Al_0.99_Si_2.01_O_6_
Raman shift (cm-1)	intensity
100.34	0
104.516	9.054
108.691	314.584
112.864	636.945
117.034	1257.12
121.203	841.372
125.369	929.493
129.534	1250.84
133.696	1607.12
137.857	2808.24
142.016	3396.38
146.172	4261.37
150.327	5085.62
154.48	5506.24
158.63	5272.95
162.779	4746.65
166.926	4074.75
171.07	3588.84
175.213	4049.79
179.354	4679.63
183.493	4768.07
187.63	4381.62
191.765	3596.66
195.898	2981.25
200.029	2621.1
204.158	2445.12
208.285	2630.07
212.41	2286.69
216.533	2043.81
220.654	1471.27
224.773	1098.8
228.891	578.131
233.006	328.141
237.119	120.835
241.231	38.242
245.34	53.601
249.448	123.666
253.553	130.126
257.657	169.862
261.758	51.531
265.858	123.66
269.956	51.826
274.052	58.027
278.146	127.607
282.237	52.831
286.327	130.493
290.416	602.023
294.502	1030.18
298.586	1426.84
302.668	1695.93
306.749	1448.2
310.827	1224.91
314.903	934.765
318.978	899.152
323.051	883.774
327.121	943.713
331.19	1278.12
335.257	1455.73
339.322	1643.6
343.385	1411.1
347.446	1118.61
351.505	763.481
355.563	753.892
359.618	692.816
363.672	908.71
367.723	988.57
371.773	1034.38
375.821	1384.16
379.866	1369.98
383.91	1209.98
387.952	1274.06
391.992	1348.17
396.031	1119.32
400.067	940.818
404.101	997.061
408.134	487.075
412.165	719.617
416.193	566.907
420.22	483.285
424.245	751.96
428.268	802.714
432.289	705.451
436.309	488.707
440.326	483.703
444.342	120.742
448.355	436.623
452.367	535.176
456.377	611.393
460.385	1318.41
464.391	2076.75
468.395	3176.28
472.398	5258.69
476.398	8534.96
480.397	13333.3
484.394	18030.4
488.389	21681.7
492.382	26806.2
496.373	30195.7
500.362	27253.5
504.349	24855.6
508.335	22807.3
512.319	18879.6
516.3	15955.6
520.28	16122.6
524.259	18126.8
528.235	20523
532.209	18328.2
536.182	12020.6
540.152	7291.81
544.121	4743.06
548.088	3168.07
552.053	2515.44
556.017	1788.29
559.978	1419.63
563.938	1082.53
567.895	679.453
571.851	522.092
575.805	382.92
579.758	164.434
583.708	3.191
587.657	11.465
591.603	340.957
595.548	113.348
599.491	192.26
603.432	86.381
607.372	25.68
611.309	86.564
615.245	135.242
619.179	163.75
623.111	83.717
627.041	110.551
630.97	24.084
634.896	4.594
638.821	161.576
642.744	91.578
646.665	50.596
650.584	41.246
654.502	203.594
658.418	287.785
662.331	53.701
666.244	192.475
670.154	60.922
674.062	272.576
677.969	304.525
681.874	203.951
685.777	365.588
689.678	25.246
693.577	128.592
697.475	128.922
701.371	135.744
705.265	116.199
709.157	135.307
713.047	151.047
716.936	313.037
720.823	533.859
724.708	248.488
728.591	507.99
732.472	526.832
736.352	446.59
740.23	408.057
744.106	370.703
747.98	444.059
751.853	213.662
755.723	240.406
759.592	411.412
763.459	366.135
767.325	202.395
771.188	451.818
775.05	685.895
778.91	629.041
782.768	846.576
786.625	770.322
790.479	744.408
794.332	694.537
798.183	650.246
802.033	523.799
805.88	544.648
809.726	319.047
813.57	131.273
817.413	56.361
821.253	307.143
825.092	306.418
828.929	112.723
832.764	190.439
836.598	138.625
840.429	72.361
844.259	27.082
848.088	154.91
851.914	259.611
855.739	207.078
859.562	2.9
863.383	162.832
867.203	94.707
871.02	163.309
874.836	70.014
878.65	62.705
882.463	34.164
886.274	101.764
890.083	294.902
893.89	228.863
897.695	93.412
901.499	222.814
905.301	288.824
909.102	362.379
912.9	393.293
916.697	660.289
920.492	591.027
924.285	322.732
928.077	579.605
931.867	676.492
935.655	522.248
939.442	853.947
943.226	915.461
947.009	842.805
950.791	979.965
954.57	1101.98
958.348	1258.57
962.124	1293.25
965.899	1440.74
969.671	1393.38
973.442	1093.12
977.211	1533.56
980.979	1624.89
984.745	1730.97
988.509	1516.05
992.271	1430.95
996.032	1494.62
999.791	1787.18
1003.55	1448.68
1007.3	1500.7
1011.06	1811.65
1014.81	1786.86
1018.56	1744.31
1022.31	1785.13
1026.06	1992.65
1029.8	1916.93
1033.55	1905.09
1037.29	1931.45
1041.03	2021.46
1044.77	2234.36
1048.5	2138.92
1052.24	2187.48
1055.97	2317.75
1059.7	2332.53
1063.43	2284.14
1067.16	2163.51
1070.89	1952.21
1074.61	2072.95
1078.34	1786.63
1082.06	1625.38
1085.78	1885.97
1089.5	1760.96
1093.21	1596.15
1096.93	1862.22
1100.64	1664.27
1104.35	1901.11
1108.06	1496.12
1111.77	1635.98
1115.48	1453.28
1119.18	1371.05
1122.89	1502.5
1126.59	1366.06
1130.29	810.023
1133.99	1096.3
1137.68	1136.03
1141.38	704.057
1145.07	619.795
1148.76	669.859
1152.45	321.291
1156.14	223.58
1159.83	441.756
1163.51	366.211
1167.19	575.982
1170.88	455.791
1174.56	248.299
1178.23	257.676
1181.91	153.16
1185.59	378.979
1189.26	155.014
1192.93	188.064
1196.6	287.428
1200.27	200.23
1203.94	343.898
1207.6	258.754
1211.27	14.16
1214.93	134.797
1218.59	228.43
1222.25	67.59
1225.9	190.418
1229.56	66.426
1233.21	234.211
1236.86	249.16
1240.51	101.145
1244.16	300.664
1247.81	387.215
1251.45	455.445
1255.1	270.148
1258.74	110.543
1262.38	62.738
1266.02	143.066
1269.66	100.797
1273.29	56.469
1276.93	89.984
1280.56	205.633
1284.19	145.988
1287.82	262.207
1291.45	277.809
1295.07	594.031
1298.7	143.898
1302.32	182.992
1305.94	81.715
1309.56	206.492
1313.18	299.793
1316.8	342.266
1320.41	14.48
1324.02	101.176
1327.63	49.551
1331.24	137.621
1334.85	35.898
1338.46	110.551
1342.06	285.785
1345.67	268.836
1349.27	572.273
1352.87	608.836
1356.47	693.156
1360.07	743.18
1363.66	421.395
1367.25	418.695
1370.85	703.023
1374.44	407.996
1378.03	430.305
1381.61	509.395
1385.2	616.605
1388.78	307.375
1392.37	846.301
1395.95	796.438
1399.53	628.66
1403.1	809.863
1406.68	423.098
1410.26	521.602
1413.83	631.812
1417.4	673.434
1420.97	797.84
1424.54	530.926
1428.1	520.949
1431.67	364.848
1435.23	714.035
1438.8	785.828
1442.36	551.82
1445.91	720.434
1449.47	789.465
1453.03	861.332
1456.58	921.152
1460.13	880.223
1463.68	558.789
1467.23	342.77
1470.78	534.406
1474.33	545.965
1477.87	385.508
1481.42	712.895
1484.96	504.199
1488.5	440.809
1492.04	397.207
1495.57	688.473
1499.11	262.574
1502.64	121.254
1506.17	326.762
1509.71	138.629
1513.23	435.668
1516.76	8.188
1520.29	43.812
