Measurement: Raman, 514 nm, unoriented, Raman Data Processed
Mineral: Leucophanite
Rruff sample: R060207
Ideal chemistry: NaCaBeSi_2_O_6_F
Locality: Mont Saint-Hilaire, Rouville County, Quebec, Canada
Source: Royal Ontario Museum
Description: Pale yellow tabular crystal
Measured chemistry: Na_1.00_Ca_1.00_Be_1.00_Si_2.00_O_6_(F_0.80_(OH)_0.20_)_Î£=1_; (OH)  estimated by charge balance; Be estimated by difference
Raman shift (cm-1)	intensity
101.036	0
103.82	8.607
106.604	47.819
109.387	107.603
112.168	65.773
114.949	236.24
117.729	268.721
120.508	299.16
123.286	270.527
126.063	237.326
128.84	316.485
131.615	404.335
134.39	386.252
137.164	351.658
139.937	304.957
142.709	247.934
145.48	276.196
148.25	264.445
151.019	273.239
153.788	308.718
156.555	396.066
159.322	497.591
162.088	600.89
164.853	466.978
167.617	376.286
170.38	524.283
173.142	928.995
175.904	905.534
178.664	621.325
181.424	318.389
184.183	196.455
186.94	130.775
189.698	157.544
192.454	137.418
195.209	56.884
197.963	257.432
200.717	442.255
203.47	415.887
206.221	268.474
208.972	151.849
211.722	23.104
214.472	44.261
217.22	31.589
219.967	69.591
222.714	25.941
225.46	83.069
228.204	182.191
230.948	237.054
233.692	131.284
236.434	123.455
239.175	313.159
241.916	411.062
244.655	504.705
247.394	298.669
250.132	266.016
252.869	155.393
255.605	97.095
258.34	199.237
261.075	94.673
263.808	79.258
266.541	90.884
269.273	37.521
272.004	145.692
274.734	241.092
277.463	251.619
280.192	208.24
282.919	174.898
285.646	141.564
288.372	101.469
291.097	18.664
293.821	54.805
296.544	16.466
299.266	61.165
301.988	65.681
304.709	188.513
307.428	480.212
310.147	852.773
312.865	1276.19
315.583	1806.45
318.299	1697.52
321.015	1109.42
323.729	880.901
326.443	635
329.156	412.773
331.868	346.619
334.579	248.035
337.29	249.854
339.999	186.623
342.708	149.159
345.416	97.63
348.123	30.859
350.829	90.387
353.534	9.638
356.239	111.565
358.942	268.475
361.645	716.011
364.347	1334.88
367.048	1345.61
369.748	749.759
372.448	337.128
375.146	329.422
377.844	502.711
380.54	846.696
383.236	1252.98
385.932	1186.68
388.626	778.428
391.319	334.091
394.012	76.077
396.704	75.629
399.394	29.294
402.084	7.189
404.774	31.287
407.462	90.871
410.15	173.688
412.836	273.114
415.522	100.384
418.207	85.673
420.891	28.516
423.575	26.374
426.257	173.137
428.939	557.226
431.619	1000.99
434.299	1624.06
436.978	1436.07
439.657	988.698
442.334	733.754
445.011	686.754
447.687	496.183
450.361	426.52
453.036	495.005
455.709	573.643
458.381	565.021
461.053	458.563
463.724	694.496
466.394	1131.22
469.063	1807.54
471.731	2473.67
474.398	2598.55
477.065	1842.42
479.731	1065.85
482.396	609.528
485.06	441.625
487.723	242.21
490.385	172.114
493.047	219.992
495.708	256.191
498.368	150.498
501.027	523.812
503.685	666.364
506.342	588.172
508.999	379.061
511.655	169.206
514.31	174.124
516.964	153.441
519.617	188.039
522.27	223.828
524.921	123.862
527.572	163.364
530.222	17.67
532.871	260.45
535.52	407.269
538.167	494.628
540.814	351.515
543.46	267.883
546.105	273.721
548.749	309.013
551.393	223.31
554.035	244.819
556.677	470.201
559.318	865.134
561.958	1508.67
564.597	2143.92
567.236	1881.34
569.874	1090.61
572.511	669.675
575.147	616.818
577.782	346.821
580.416	262.564
583.05	90.838
585.683	90.465
588.315	11.04
590.946	46.844
593.576	24.03
596.206	21.948
598.834	90.426
601.462	29.077
604.089	77.376
606.715	45.574
609.341	16.682
611.965	37.129
614.589	0.597
617.212	123.701
619.834	217.355
622.456	141.86
625.076	206.242
627.696	189.562
630.315	234.438
632.933	377.043
635.551	438.167
638.167	338.511
640.783	518.523
643.398	676.785
646.012	702.033
648.625	746.587
651.237	770.137
653.849	1033.25
656.46	1386.06
659.07	1902.73
661.679	2245.2
664.288	3038.76
666.895	4549.93
669.502	6850.77
672.108	10849.4
674.713	16686.2
677.318	21443
679.921	19089
682.524	12952
685.126	9106.66
687.727	6517.79
690.328	5031.28
692.927	4045.11
695.526	3728.86
698.124	3789.8
700.721	3940.62
703.318	4238.83
705.913	4897.38
708.508	5061.23
711.102	4534.84
713.695	3218.31
716.288	2445.16
718.879	1736.87
721.47	1148.98
724.06	1396.32
726.649	1290.12
729.238	1282.38
731.825	1476.26
734.412	1107.5
736.998	1094.24
739.584	1014.63
742.168	767.74
744.752	838.004
747.334	608.551
749.916	558.566
752.498	693.688
755.078	758.498
757.658	813.699
760.237	763.9
762.815	1093.28
765.392	1381.54
767.969	1156.82
770.544	845.738
773.119	770.998
775.693	726.365
778.267	637.482
780.839	602.918
783.411	346.807
785.982	629.988
788.552	786.27
791.122	623.617
793.69	425.393
796.258	475.326
798.825	623.887
801.391	443.064
803.957	439.441
806.522	375.73
809.085	294.58
811.649	399.576
814.211	619.262
816.772	474.188
819.333	397.484
821.893	189.402
824.452	319.883
827.011	290.27
829.568	69.627
832.125	87.09
834.681	492.883
837.236	207.301
839.791	260.256
842.345	221.033
844.898	178.682
847.45	44.643
850.001	88.984
852.552	191.73
855.102	152.967
857.651	2.668
860.199	140.494
862.746	103.656
865.293	130.232
867.839	161.91
870.384	421.654
872.928	89.566
875.472	564.781
878.015	619.176
880.557	820.625
883.098	520.641
885.639	399.662
888.178	154.412
890.717	110.797
893.256	1.684
895.793	55.543
898.33	71.619
900.865	10.088
903.401	311.105
905.935	46.41
908.468	102.361
911.001	437.709
913.533	181.641
916.064	355.734
918.595	290.82
921.124	33.793
923.653	413.238
926.182	149.371
928.709	333.109
931.236	14.496
933.761	16.094
936.286	22.082
938.811	217.809
941.334	223.133
943.857	466.25
946.379	528.734
948.9	399.297
951.421	338.355
953.94	905.379
956.459	28.82
958.978	266.074
961.495	560.219
964.012	681.984
966.527	1566.7
969.043	2336.52
971.557	1973.5
974.071	1365.67
976.583	1396.35
979.095	1134.66
981.607	958.41
984.117	1092.81
986.627	1100.05
989.136	1078.61
991.644	1187.94
994.152	1327.88
996.659	1381.38
999.165	1662.51
1001.67	2050.93
1004.17	2069.33
1006.68	1618.96
1009.18	1565.48
1011.68	1447.11
1014.18	2078.08
1016.68	2629.92
1019.18	3845.89
1021.68	6437.92
1024.18	11877.8
1026.68	14200.3
1029.18	8527.33
1031.67	4260.19
1034.17	2677.91
1036.66	1487.06
1039.16	1203.93
1041.65	1773.46
1044.14	1805.54
1046.63	2457
1049.12	3271.23
1051.62	3763.8
1054.11	4308.98
1056.59	2198.05
1059.08	1665.56
1061.57	1082.5
1064.06	1513.66
1066.54	792.453
1069.03	1038.3
1071.51	1204.47
1073.99	882.855
1076.47	1242.52
1078.96	801.816
1081.44	832.07
1083.92	994.145
1086.4	577.348
1088.88	802.121
1091.36	596.027
1093.83	70.316
1096.31	565.531
1098.79	851.766
1101.26	529.738
1103.73	559.41
1106.21	111.078
1108.68	47.535
1111.15	482.801
1113.62	80.801
1116.1	138.566
1118.57	866.848
1121.04	874.332
1123.5	290.258
1125.97	10.422
