Measurement: Raman, 514 nm, unoriented, Raman Data Processed
Mineral: Leucophanite
Rruff sample: R060199
Ideal chemistry: NaCaBeSi_2_O_6_F
Locality: Mont Saint-Hilaire, Rouville County, Quebec, Canada
Source: Royal Ontario Museum
Description: Gray colored transparent fragment
Measured chemistry: Ca_2.00_Na_2.00_Be_2.00_Si_4.00_O_12_F_2.00_ ; Be not measured but estimated by difference and charge balance
Raman shift (cm-1)	intensity
82.916	0
87.101	239.772
91.284	260.15
95.465	15.791
99.644	27.84
103.82	14.267
107.995	266.069
112.168	8.814
116.339	148.961
120.508	144.243
124.675	199.736
128.84	204.3
133.003	248.539
137.164	207.612
141.323	304.061
145.48	471.187
149.635	378.943
153.788	922.758
157.939	1591.82
162.088	1480.72
166.235	643.385
170.38	452.719
174.523	1322.52
178.664	381.714
182.803	137.987
186.94	75.148
191.076	57.157
195.209	52.863
199.34	175.206
203.47	582.158
207.597	458.737
211.722	84.055
215.846	8.858
219.967	36.288
224.087	47.757
228.204	98.788
232.32	45.976
236.434	69.264
240.545	236.242
244.655	318.603
248.763	199.287
252.869	319.098
256.973	519.751
261.075	436.982
265.175	372.179
269.273	485.805
273.369	881.888
277.463	1193.56
281.556	794.326
285.646	511.107
289.734	310.046
293.821	337.634
297.905	432.986
301.988	412.778
306.069	747.017
310.147	1530.96
314.224	3935.57
318.299	3673.44
322.372	1314.87
326.443	828.468
330.512	576.787
334.579	449.936
338.645	397.06
342.708	304.214
346.769	282.25
350.829	251.757
354.887	343.579
358.942	816.566
362.996	3338.77
367.048	3663.13
371.098	870.242
375.146	402.415
379.192	370.481
383.236	368.41
387.279	161.389
391.319	132.641
395.358	8.406
399.394	23.112
403.429	34.283
407.462	57.727
411.493	75.249
415.522	38.13
419.549	48.656
423.575	46.113
427.598	76.264
431.619	38.167
435.639	36.268
439.657	153.27
443.673	336.74
447.687	318.506
451.699	169.464
455.709	233.981
459.717	528.949
463.724	918.192
467.728	1515.88
471.731	2908.14
475.732	2419.33
479.731	1527.82
483.728	577.37
487.723	183.456
491.716	228.925
495.708	305.835
499.697	237.172
503.685	159.745
507.671	138.281
511.655	299.769
515.637	334.478
519.617	230.979
523.596	226.918
527.572	443.289
531.547	961.146
535.52	1681.45
539.491	1698.22
543.46	1109.62
547.427	690.786
551.393	445.435
555.356	247.412
559.318	136.671
563.278	361.288
567.236	259.266
571.192	238.21
575.147	121.034
579.099	69.274
583.05	15.257
586.999	12.029
590.946	5.959
594.891	154.249
598.834	62.095
602.776	31.546
606.715	157.757
610.653	159.389
614.589	183.91
618.523	193.225
622.456	367.134
626.386	314.865
630.315	153.1
634.242	352.594
638.167	554.772
642.09	828.541
646.012	863.657
649.931	970.015
653.849	1433.42
657.765	2264.93
661.679	3366.49
665.592	5435.4
669.502	10135.2
673.411	22444.9
677.318	34455.2
681.223	26454
685.126	13316.8
689.028	8564.25
692.927	6349.58
696.825	6069.81
700.721	6686.31
704.616	8502.56
708.508	9803.25
712.399	6970.57
716.288	3985.75
720.175	2428.77
724.06	1398.48
727.944	842.259
731.825	847.644
735.705	963.006
739.584	762.435
743.46	703.56
747.334	384.27
751.207	400.854
755.078	669.093
758.947	1102.18
762.815	1218.08
766.68	1031.63
770.544	446.616
774.406	574.189
778.267	896.247
782.125	615.421
785.982	473.747
789.837	112.925
793.69	289.244
797.542	483.727
801.391	553.976
805.239	402.766
809.085	153.257
812.93	16.999
816.772	355.496
820.613	401.803
824.452	416.776
828.29	50.436
832.125	2.562
835.959	23.6
839.791	393.742
843.621	442.104
847.45	295.169
851.277	3.102
855.102	97.834
858.925	150.146
862.746	369.651
866.566	496.467
870.384	230.745
874.2	182.489
878.015	381.736
881.828	618.686
885.639	523.508
889.448	545.216
893.256	191.891
897.061	34.959
900.865	5.936
904.668	140.693
908.468	386.178
912.267	510.58
916.064	714.795
919.86	567.229
923.653	375.123
927.445	280.846
931.236	269.711
935.024	603.051
938.811	348.301
942.596	16.268
946.379	39.752
950.161	426.953
953.94	993.914
957.719	931.066
961.495	1011.4
965.27	1698.11
969.043	2882.75
972.814	1915.63
976.583	1867.41
980.351	1636.49
984.117	1229.19
987.882	788.258
991.644	512.898
995.405	846.32
999.165	1276.67
1002.92	1995.81
1006.68	2028.26
1010.43	1856.63
1014.18	2265.51
1017.93	3731.29
1021.68	7831.96
1025.43	12808.3
1029.18	8577.62
1032.92	3649.32
1036.66	1877.3
1040.4	1575.88
1044.14	2375.32
1047.88	4906.53
1051.62	8447.45
1055.35	6268.24
1059.08	3185.19
1062.81	2020.61
1066.54	1096.58
1070.27	847.09
1073.99	1160.39
1077.72	1359.12
1081.44	1037.02
1085.16	426.586
1088.88	293.383
1092.59	105.678
1096.31	31.105
1100.02	382.164
1103.73	745.201
1107.44	1006.23
1111.15	1507.63
1114.86	888.824
1118.57	671.057
1122.27	406.387
1125.97	717.012
1129.67	936.551
1133.37	1412.12
1137.07	1502.84
1140.76	1257.5
1144.45	889.695
1148.15	677.195
1151.84	644.766
1155.53	844.211
1159.21	1877.55
1162.9	1005.46
1166.58	1061.91
1170.26	243.73
1173.94	4.383
