Measurement: Raman, 532 nm, unoriented, Raman Data Processed
Mineral: Leucite
Rruff sample: R040107
Ideal chemistry: K(Si_2_Al)O_6_
Locality: Roccamonfina, Italy
Source: University of Arizona Mineral Museum
Description: Rounded colorless crystals embedded in an ash matrix
Measured chemistry: (K_0.95_Na_0.03_)Al_0.99_Si_2.01_O_6_
Raman shift (cm-1)	intensity
120.118	0
123.493	114.176
126.868	717.289
130.243	1145.39
133.618	1246.79
136.993	1476.02
140.367	1693.56
143.742	2069.35
147.117	2319.19
150.492	2388.58
153.867	2103.44
157.241	1770.97
160.616	1429.93
163.991	1165.85
167.366	1060.71
170.741	1253.02
174.115	1690.26
177.49	2086.68
180.865	2117
184.24	1747.95
187.615	1392.61
190.989	1039.77
194.364	737.073
197.739	574.856
201.114	481.24
204.489	454.861
207.864	473.092
211.238	522.705
214.613	511.196
217.988	435.189
221.363	305.115
224.738	246.645
228.113	117.715
231.487	33.1831
234.862	32.4514
238.237	90.2263
241.612	70.6494
244.987	62.3126
248.361	30.8796
251.736	12.6498
255.111	68.9187
258.486	118.911
261.861	147.978
265.236	170.907
268.61	175.842
271.985	209.446
275.36	191.282
278.735	213.215
282.11	293.273
285.484	323.124
288.859	463.925
292.234	556.995
295.609	704.184
298.984	765.467
302.358	684.456
305.733	563.997
309.108	471.675
312.483	398.661
315.858	328.06
319.233	294.29
322.607	303.609
325.982	242.123
329.357	212.35
332.732	235.17
336.107	172.531
339.481	149.136
342.856	156.639
346.231	142.492
349.606	107.829
352.981	94.7706
356.355	92.0535
359.73	85.5508
363.105	87.9031
366.48	76.472
369.855	89.3243
373.229	77.2369
376.604	48.5405
379.979	37.7201
383.354	72.8632
386.729	67.2165
390.104	47.2521
393.478	25.6149
396.853	2.11829
400.228	37.0327
403.603	40.6934
406.978	30.5189
410.353	6.50732
413.727	10.0575
417.102	65.9917
420.477	153.937
423.852	231.869
427.227	302.687
430.601	298.216
433.976	209.293
437.351	133.244
440.726	2.84741
444.101	3.7334
447.475	28.0769
450.85	35.0989
454.225	163.015
457.6	339.258
460.975	527.24
464.349	786.509
467.724	1227.14
471.099	2025.97
474.474	3082.57
477.849	4596.61
481.224	5996.17
484.598	7275.67
487.973	8256.51
491.348	9247.2
494.723	9833.37
498.098	9099.67
501.473	8047.11
504.847	7597.38
508.222	6925.74
511.597	5806.11
514.972	5136.76
518.347	5091.2
521.721	5742.31
525.096	6413.31
528.471	6313.05
531.846	4886.92
535.221	3118.41
538.595	2002.61
541.97	1246.36
545.345	868.114
548.72	589.47
552.095	466.422
555.47	287.404
558.844	188.791
562.219	99.5829
565.594	18.7485
568.969	21.6074
572.344	56.346
575.718	42.8203
579.093	32.5947
582.468	0.947754
585.843	36.6102
589.218	52.4812
592.592	51.4768
595.967	90.2382
599.342	35.5935
602.717	91.33
606.092	83.355
609.467	80.6279
612.841	101.538
616.216	137.185
619.591	160.228
622.966	127.584
626.341	126.562
629.715	138.225
633.09	64.1305
636.465	25.2274
639.84	21.7983
643.215	3.46582
646.59	7.03625
649.964	10.037
653.339	16.3938
656.714	59.246
660.089	39.7402
663.464	124.288
666.838	101.688
670.213	127.216
673.588	116.087
676.963	102.538
680.338	95.4841
683.712	95.532
687.087	53.3761
690.462	64.1014
693.837	57.3602
697.212	28.6235
700.587	53.7717
703.961	34.2616
707.336	2.76538
710.711	19.9742
714.086	49.3284
717.461	61.6854
720.835	61.9966
724.21	57.5105
727.585	32.8987
730.96	37.8818
734.335	44.558
737.71	43.4119
741.084	17.9095
744.459	19.5955
747.834	20.3668
751.209	23.4614
754.584	46.9827
757.958	42.019
761.333	65.5426
764.708	73.0772
768.083	30.7378
771.458	59.327
774.832	84.2892
778.207	88.9626
781.582	96.6205
784.957	64.042
788.332	95.8473
791.707	113.841
795.081	47.2398
798.456	68.5557
801.831	48.9429
805.206	25.7227
808.581	18.2736
811.955	5.43604
815.33	25.2114
818.705	5.68518
822.08	28.7933
825.455	46.4158
828.83	60.9514
832.204	44.2144
835.579	55.983
838.954	58.7776
842.329	57.4067
845.704	93.0632
849.078	72.3969
852.453	76.3027
855.828	113.561
859.203	86.3778
862.578	98.6222
865.952	79.16
869.327	83.1425
872.702	73.5505
876.077	46.7571
879.452	38.9208
882.827	42.5917
886.201	14.278
889.576	24.4591
892.951	26.8658
896.326	6.35742
899.701	12.4182
903.075	20.3718
906.45	45.6888
909.825	33.8029
913.2	28.4376
916.575	34.5107
919.949	4.53772
923.324	18.1437
926.699	45.0177
930.074	33.6133
933.449	28.594
936.823	69.3876
940.198	162.511
943.573	143.495
946.948	160.278
950.323	251.907
953.698	266.05
957.072	260.074
960.447	245.864
963.822	253.36
967.197	270.859
970.572	243.538
973.947	205.373
977.321	186.377
980.696	194.355
984.071	140.572
987.446	93.1431
990.821	132.238
994.195	128.996
997.57	105.997
1000.95	114.909
1004.32	79.3037
1007.7	125.269
1011.07	74.907
1014.44	59.6555
1017.82	31.3748
1021.19	10.2964
1024.57	23.2766
1027.94	12.9236
1031.32	5.1001
1034.69	34.7195
1038.07	7.28125
1041.44	2.53394
1044.82	10.5786
1048.19	62.7129
1051.57	107.415
1054.94	107.936
1058.32	91.6235
1061.69	89.4356
1065.07	98.1575
1068.44	62.6118
1071.82	62.4492
1075.19	48.7832
1078.57	41.1091
1081.94	25.5344
1085.32	48.5679
1088.69	50.6882
1092.07	89.9172
1095.44	55.6416
1098.82	94.6008
1102.19	92.5098
1105.56	117.109
1108.94	141.992
1112.31	153.178
1115.69	153.19
1119.06	174.02
1122.44	174.727
1125.81	156.488
1129.19	177.968
1132.56	197.284
1135.94	203.492
1139.31	190.285
1142.69	156.888
1146.06	131.176
1149.44	124.342
1152.81	122.994
1156.19	108.819
1159.56	62.9066
1162.94	52.7737
1166.31	29.5159
1169.69	12.1681
1173.06	4.25293
1176.43	11.43
1179.81	22.6221
1183.18	10.1615
1186.56	30.7722
1189.93	2.45447
1193.31	68.9146
1196.68	45.2651
1200.06	37.5997
1203.43	37.6276
1206.81	63.7238
1210.18	46.3691
1213.56	84.6791
1216.93	44.9653
1220.31	81.6484
1223.68	111.096
1227.06	81.8984
1230.43	100.915
1233.81	86.0664
1237.18	47.193
1240.56	75.2814
1243.93	64.47
1247.31	34.6827
1250.68	54.6628
1254.06	8.26209
1257.43	30.3805
1260.81	55.0922
1264.18	3.01929
1267.56	58.2833
1270.93	6.89978
1274.31	14.5697
1277.68	14.9282
