Measurement: Raman, 532 nm, unoriented, Raman Data Processed
Mineral: Leucophanite
Rruff sample: R060207
Ideal chemistry: NaCaBeSi_2_O_6_F
Locality: Mont Saint-Hilaire, Rouville County, Quebec, Canada
Source: Royal Ontario Museum
Description: Pale yellow tabular crystal
Measured chemistry: Na_1.00_Ca_1.00_Be_1.00_Si_2.00_O_6_(F_0.80_(OH)_0.20_)_Î£=1_; (OH)  estimated by charge balance; Be estimated by difference
Raman shift (cm-1)	intensity
156.2	0
159.092	198.148
161.985	188.098
164.878	22.5762
167.77	1.91406
170.663	201.043
173.556	712.539
176.448	605.301
179.341	235.238
182.234	133.516
185.127	130.336
188.019	121.834
190.912	217.06
193.805	158.986
196.697	130.312
199.59	197.148
202.483	270.617
205.375	190.287
208.268	10.8828
211.161	22.377
214.054	46.2988
216.946	4.50391
219.839	90.7539
222.732	154.26
225.624	205.695
228.517	337.066
231.41	351.193
234.303	294.861
237.195	365.428
240.088	478.394
242.981	582.305
245.873	486.971
248.766	397.275
251.659	264.719
254.551	317.586
257.444	357.455
260.337	358.322
263.229	264.74
266.122	259.812
269.015	214.188
271.908	116.461
274.8	182.156
277.693	155.174
280.586	102.887
283.478	54.7676
286.371	67.2148
289.264	5.54883
292.156	27.834
295.049	20.7461
297.942	74.4394
300.835	135.711
303.727	200.553
306.62	491.535
309.513	623.557
312.405	843.162
315.298	1055.21
318.191	889.201
321.084	462.955
323.976	383.24
326.869	477.144
329.762	694.689
332.654	976.668
335.547	1381.55
338.44	1896.84
341.332	2303.17
344.225	2410.75
347.118	2234.08
350.01	2174.86
352.903	2103.28
355.796	2061.87
358.689	2080
361.581	2314.38
364.474	2498.14
367.367	1926.19
370.259	1388.45
373.152	1248.41
376.045	1306.52
378.938	1117.63
381.83	725.141
384.723	343.879
387.616	127.094
390.508	110.027
393.401	14.1055
396.294	107.684
399.186	461.238
402.079	921.172
404.972	1351.94
407.865	1872.06
410.757	1810.31
413.65	1408.71
416.543	963.191
419.435	863.508
422.328	1190.44
425.221	1490.55
428.113	1755.93
431.006	2178.23
433.899	2453.65
436.791	2368.64
439.684	1774.36
442.577	1247.72
445.469	865.797
448.362	705.742
451.255	509.07
454.148	565.324
457.04	525.363
459.933	520.184
462.826	270.828
465.718	223.019
468.611	366.758
471.504	695.594
474.397	602.906
477.289	176.875
480.182	83.4141
483.075	137.266
485.967	15.5195
488.86	351.738
491.753	832.219
494.645	1275.73
497.538	1468.1
500.431	1663.37
503.324	1547.48
506.216	1236.73
509.109	893.375
512.002	727.262
514.894	635.945
517.787	735.844
520.68	836.269
523.572	1108.92
526.465	1381.93
529.358	1659.79
532.25	1665.5
535.143	1713.13
538.036	1627.35
540.929	1401.12
543.821	1246.62
546.714	1183.84
549.607	1228.39
552.5	1348.77
555.392	1517.91
558.285	1610.09
561.178	1868.91
564.07	1902.8
566.963	1469.81
569.856	629.738
572.748	192.195
575.641	91.9883
578.534	107.356
581.427	37.6797
584.319	154.699
587.212	55.5156
590.105	67.8555
592.997	76.707
595.89	35.5938
598.783	150.961
601.675	694.133
604.568	977.809
607.461	1208.2
610.353	1401.48
613.246	1280.9
616.139	1177.74
619.032	1036.38
621.924	985.312
624.817	865.109
627.71	971.508
630.602	614.367
633.495	414.086
636.388	571.039
639.28	561.609
642.173	607.008
645.066	497.477
647.958	613.969
650.851	633.719
653.744	672.672
656.637	835.789
659.529	1209.19
662.422	1680.6
665.315	2850.74
668.207	4149.93
671.1	6225.6
673.993	8532.18
676.885	10176.1
679.778	8155.77
682.671	4538.8
685.564	2420.62
688.456	1773.77
691.349	1682.99
694.242	1635.01
697.134	1511.34
700.027	1903.29
702.92	2043.79
705.812	2341
708.705	2299.73
711.598	1798.37
714.491	1183.51
717.383	694.844
720.276	327.117
723.169	237.586
726.061	253.914
728.954	460.281
731.847	423.523
734.74	366.266
737.632	55.5781
740.525	55.375
743.418	153.844
746.31	28.3203
749.203	16.6484
752.096	59.6953
754.988	64.5
757.881	183.141
760.774	260.656
763.667	531.547
766.559	397.359
769.452	285.352
772.345	15.5469
775.237	297.898
778.13	279.484
781.023	288.312
783.915	414.578
786.808	442.773
789.701	308.203
792.593	484.219
795.486	648.547
798.379	640.805
801.271	804.711
804.164	624.586
807.057	516.797
809.95	430.375
812.842	94.6875
815.735	394.094
818.628	148.914
821.52	355.852
824.413	294.344
827.306	56.0938
830.198	65.5938
833.091	139.469
835.984	181.758
838.877	270.914
841.769	454.234
844.662	517.281
847.555	473.766
850.447	389.516
853.34	375.602
856.233	585.102
859.125	580.492
862.018	1064.56
864.911	1161.62
867.804	968.617
870.696	574.156
873.589	530.125
876.482	801.734
879.375	1017.94
882.267	825.414
885.16	666.43
888.053	544.898
890.945	914.891
893.838	610.156
896.731	455.195
899.623	474.422
902.516	1097.33
905.409	1062.72
908.302	1146.41
911.194	1147.47
914.087	789.672
916.98	757.141
919.872	638.578
922.765	640.562
925.658	651.25
928.55	666.781
931.443	477.453
934.336	281.422
937.229	53.4062
940.121	81.3438
943.014	52.6406
945.907	216.234
948.799	4.8125
951.692	83.0156
954.585	117.328
957.477	310.734
960.37	433.188
963.263	89.5312
966.155	713.094
969.048	808.984
971.941	446.594
974.834	348.562
977.726	320.344
980.619	341.703
983.512	259.062
986.404	659.078
989.297	1248.03
992.19	1839.88
995.082	1893.06
997.975	2060.64
1000.87	2126.2
1003.76	2419.31
1006.65	2847.98
1009.55	3620.91
1012.44	4414.86
1015.33	5000.66
1018.22	6747.98
1021.12	9286.38
1024.01	12387.4
1026.9	12803.4
1029.8	11058.4
1032.69	11102.2
1035.58	12262.2
1038.47	13762.5
1041.37	14744
1044.26	15954.1
1047.15	18041.2
1050.04	19798
1052.94	21442.9
1055.83	22045.5
1058.72	21853.1
1061.62	20902.9
1064.51	19672.2
1067.4	17728
1070.29	16132.8
1073.18	14790.3
1076.08	12613.5
1078.97	10611.2
1081.86	8370.98
1084.76	6381.08
1087.65	5117.7
1090.54	4115.84
1093.43	3287.19
1096.33	2874.11
1099.22	2239.55
1102.11	1631.81
1105.01	547.438
1107.9	380.328
1110.79	129.109
1113.68	420
1116.58	150.125
1119.47	611.094
1122.36	486.422
1125.25	464.484
1128.15	450.297
1131.04	462.953
1133.93	47.6406
1136.83	237.891
1139.72	707.422
1142.61	824.812
1145.5	648.531
1148.4	159.375
1151.29	422.438
1154.18	443.219
1157.07	351.859
1159.97	284.75
1162.86	803.328
1165.75	675.328
1168.64	629
1171.54	73.8281
1174.43	215.297
1177.32	959.969
1180.21	535.875
1183.11	585.641
1186	788.406
1188.89	1216.62
1191.79	442.297
1194.68	959.734
1197.57	1147.56
1200.46	1291.73
1203.36	1183.19
1206.25	1824
1209.14	2420.47
1212.04	2438.19
1214.93	2253.58
1217.82	2582.45
1220.71	2246.08
1223.61	2313.23
1226.5	2663.42
1229.39	2344.72
1232.28	1784.97
1235.18	972.5
1238.07	851.719
1240.96	1559.58
1243.86	2114.94
1246.75	1745.66
1249.64	1286.62
1252.53	1162.89
1255.42	1278.53
1258.32	1319.52
1261.21	735.234
1264.1	1075.91
1267	774.078
1269.89	1300.56
1272.78	1137.91
1275.67	904.625
1278.57	273.562
1281.46	328.719
1284.35	191.375
1287.24	220.688
1290.14	293.281
1293.03	547.5
1295.92	792.344
1298.82	227.312
1301.71	796.031
