Measurement: Raman, 532 nm, unoriented, Raman Data Processed
Mineral: Levyne-Ca
Rruff sample: R080128
Ideal chemistry: Ca_3_(Si_12_Al_6_)O_36_18H_2_O
Locality: Dallas, Oregon, USA
Source: Michael Scott
Description: Thin clear colorless tabular hexagonal crystals coated by chatoyant erionite or offretite on volcanic matrix
Raman shift (cm-1)	intensity
154.483	0
157.858	4.16406
161.233	35.5293
164.607	166.089
167.982	258.134
171.357	393.332
174.732	403.748
178.107	384.293
181.482	388.976
184.856	489.253
188.231	395.812
191.606	527.605
194.981	399.389
198.356	437.626
201.731	380.306
205.105	393.665
208.48	364.142
211.855	430.14
215.23	327.37
218.605	402.185
221.979	383.587
225.354	388.435
228.729	258.776
232.104	195.467
235.479	194.005
238.853	230.166
242.228	253.704
245.603	171.651
248.978	165.436
252.353	219.871
255.727	108.469
259.102	51.5996
262.477	82.9873
265.852	98.5713
269.227	59.3027
272.602	90.3379
275.976	19.9922
279.351	6.69727
282.726	44.4131
286.101	22.6113
289.476	13.2324
292.851	7.21094
296.225	23.8555
299.6	28.5039
302.975	27.7441
306.35	3.86914
309.725	83.082
313.099	83.4238
316.474	118.945
319.849	116.492
323.224	99.0703
326.599	115.316
329.974	98.0996
333.348	154.701
336.723	89.043
340.098	169.486
343.473	116.424
346.848	213.66
350.223	102.262
353.597	98.3027
356.972	60.9805
360.347	103.793
363.722	1.08398
367.097	46.8516
370.471	91.2324
373.846	170.785
377.221	13.1055
380.596	56.6211
383.971	65.4512
387.346	66.5996
390.72	163.029
394.095	15.0938
397.47	73.4141
400.845	5.46875
404.219	80.1231
407.594	74.0723
410.969	47.4141
414.344	35.2891
417.719	121.894
421.094	27.7344
424.469	50.5176
427.843	165.781
431.218	156.264
434.593	296.473
437.968	164.295
441.343	228.336
444.717	514.117
448.092	573.984
451.467	705.08
454.842	839.682
458.217	819.342
461.591	862.106
464.966	845.195
468.341	975.445
471.716	958.951
475.091	1043.39
478.466	1202.89
481.84	1195.04
485.215	1243.99
488.59	915.514
491.965	794.019
495.34	528.488
498.714	222.545
502.089	105.092
505.464	166.68
508.839	134.022
512.214	119.957
515.589	95.2109
518.963	47.9219
522.338	29.4023
525.713	48.041
529.088	16.3418
532.463	1.61523
535.837	21.0039
539.212	34.9648
542.587	62.2832
545.962	126.514
549.337	178.633
552.712	184.799
556.086	260.594
559.461	248.264
562.836	145.756
566.211	137.775
569.586	35.75
572.96	82.2266
576.335	53.9355
579.71	91.2109
583.085	19.2266
586.46	27.5039
589.835	140.486
593.209	8.30273
596.584	54.2715
599.959	103.252
603.334	53.1699
606.709	77.8691
610.083	158.781
613.458	17.7051
616.833	51.373
620.208	106.644
623.583	195.894
626.958	130.664
630.332	231.481
633.707	230.975
637.082	319.928
640.457	206.482
643.832	135.102
647.207	393.006
650.581	325.377
653.956	285.865
657.331	297.252
660.706	231.803
664.081	273.373
667.455	259.283
670.83	204.109
674.205	181.873
677.58	114.867
680.955	177.344
684.33	100.207
687.704	205.223
691.079	21.4707
694.454	152.781
697.829	70.9863
701.204	88.3223
704.578	105.647
707.953	53.1816
711.328	183.342
714.703	25.1328
718.078	97.8945
721.452	90.6797
724.827	132.481
728.202	220.996
731.577	22.3652
734.952	55.3262
738.327	31.4336
741.701	177.195
745.076	17.8477
748.451	45.9453
751.826	71.6211
755.201	115.227
758.576	48.1406
761.95	139.055
765.325	196.006
768.7	105.057
772.075	123.068
775.45	204.644
778.824	108.555
782.199	68.7148
785.574	229.043
788.949	203.301
792.324	183.512
795.698	179.16
799.073	142.219
802.448	193.117
805.823	39.4648
809.198	59.7539
812.573	121.539
815.947	134.25
819.322	31.3438
822.697	62.5469
826.072	11.5586
829.447	146.094
832.822	86.5781
836.196	50.3242
839.571	187.578
842.946	46.793
846.321	175.746
849.696	111.082
853.07	170.934
856.445	49.375
859.82	104.129
863.195	110.707
866.57	87.3984
869.944	82.0547
873.319	104.578
876.694	136.043
880.069	242.883
883.444	209.356
886.819	85.6875
890.193	117.199
893.568	114.359
896.943	81.5703
900.318	150.691
903.693	156.898
907.067	78.2148
910.442	132.566
913.817	183.129
917.192	165.16
920.567	237.723
923.942	154.656
927.316	20.4531
930.691	134.184
934.066	52.0312
937.441	164.469
940.816	33.7539
944.191	142.875
947.565	162.891
950.94	43.4727
954.315	10.2305
957.69	139.148
961.065	233.207
964.439	98.0312
967.814	146.789
971.189	75.0781
974.564	125.277
977.939	94.8555
981.313	158.773
984.688	136.723
988.063	279.621
991.438	109.231
994.813	174.309
998.188	206.262
1001.56	91.168
1004.94	92.6133
1008.31	179.75
1011.69	115.227
1015.06	198.805
1018.44	103.394
1021.81	176.09
1025.19	258.945
1028.56	217.898
1031.94	281.356
1035.31	182.242
1038.68	86.6172
1042.06	36.6406
1045.43	160.965
1048.81	30.457
1052.18	32.9961
1055.56	46.5664
1058.93	6.125
1062.31	150.754
1065.68	261.723
1069.06	167.316
1072.43	192.719
1075.81	10.6875
1079.18	41.7109
1082.56	79.5352
1085.93	264.715
1089.31	231.609
1092.68	336.32
1096.06	304.137
1099.43	218.68
1102.81	25.9297
1106.18	84.2578
1109.56	126.367
1112.93	248.32
1116.31	234.504
1119.68	194.535
1123.06	3.26562
1126.43	262.539
1129.81	225.543
1133.18	52.207
1136.56	123.949
1139.93	177.559
1143.31	162.598
1146.68	215.152
1150.05	265.992
1153.43	1.09375
1156.8	180.766
1160.18	128.766
1163.55	293.691
1166.93	182.418
1170.3	230.418
1173.68	22.0742
1177.05	30.375
1180.43	84.3906
1183.8	43.0312
1187.18	229.738
1190.55	183.422
1193.93	217.207
1197.3	173.852
1200.68	203.672
1204.05	176.543
1207.43	12.6211
1210.8	39.3672
1214.18	94.9844
1217.55	99.2031
1220.93	100.106
1224.3	172.879
1227.67	73.9727
1231.05	402.566
1234.42	183.746
1237.8	231.555
1241.17	199.113
1244.55	134.926
1247.92	365.293
1251.3	97.0352
1254.67	163.691
1258.05	252.941
1261.42	238.266
1264.8	322.906
1268.17	303.754
1271.55	262.797
1274.92	229.363
1278.3	383.348
1281.67	366.449
1285.05	370.969
1288.42	304.555
1291.8	253.957
1295.17	292.055
1298.55	13.8438
1301.92	213.613
1305.3	17.8398
1308.67	215.793
1312.05	117.801
