Measurement: Raman, 780 nm, unoriented, Raman Data Processed
Mineral: Libyan Desert glass
Rruff sample: R060357
Ideal chemistry: SiO_2_
Locality: Libyan Desert, Sahara Desert, Egypt
Source: Herb Obodda
Description: Pale tan amorphous fragment
Measured chemistry: Si_1.00_O_2_
Raman shift (cm-1)	intensity
153.726	0
156.619	0.915497
159.512	2.75574
162.404	2.66077
165.297	1.65352
168.19	5.10951
171.083	5.9596
173.975	2.38506
176.868	6.005
179.761	5.49116
182.653	6.02133
185.546	3.62166
188.439	5.62932
191.331	6.44894
194.224	5.89027
197.117	4.70123
200.01	3.6301
202.902	2.92377
205.795	3.63197
208.688	1.35539
211.58	1.13161
214.473	0.847351
217.366	3.60077
220.258	1.23497
223.151	7.5556
226.044	4.04869
228.936	5.57385
231.829	2.67274
234.722	4.79964
237.615	6.85971
240.507	5.97571
243.4	6.84651
246.293	5.58864
249.185	5.9689
252.078	6.10637
254.971	2.4259
257.863	2.34503
260.756	3.89384
263.649	5.08887
266.542	3.00299
269.434	4.47858
272.327	1.8904
275.22	3.46159
278.112	0.272888
281.005	4.39099
283.898	3.47817
286.791	5.22305
289.683	4.74048
292.576	4.25821
295.469	2.81549
298.361	3.66711
301.254	3.48733
304.147	4.09665
307.039	1.78195
309.932	1.58322
312.825	0.939636
315.717	0.009155
318.61	2.7991
321.503	0.539368
324.396	0.196716
327.288	1.14307
330.181	0.690552
333.074	2.71204
335.966	1.50439
338.859	3.52493
341.752	0.044708
344.644	1.40234
347.537	1.29688
350.43	1.46191
353.323	2.0303
356.215	3.45831
359.108	7.13547
362.001	5.70828
364.893	9.40924
367.786	7.24271
370.679	11.8017
373.572	12.0252
376.464	10.3999
379.357	10.7849
382.25	14.8769
385.142	12.4438
388.035	16.7886
390.928	16.0141
393.82	14.461
396.713	19.2379
399.606	16.9209
402.498	23.0162
405.391	26.2029
408.284	26.5989
411.177	28.823
414.069	29.0087
416.962	33.0052
419.855	31.9292
422.747	37.3749
425.64	40.4996
428.533	42.505
431.425	45.4722
434.318	48.467
437.211	51.1415
440.104	52.807
442.996	55.8367
445.889	59.2905
448.782	60.4188
451.674	61.428
454.567	61.3713
457.46	60.2063
460.353	61.6664
463.245	61.5925
466.138	60.9751
469.031	61.3289
471.923	65.5469
474.816	69.1322
477.709	72.6159
480.601	84.9688
483.494	94.9987
486.387	107.837
489.279	111.533
492.172	107.998
495.065	97.5729
497.958	83.9791
500.85	67.2752
503.743	52.2193
506.636	38.2009
509.528	27.5999
512.421	18.0064
515.314	10.6784
518.207	5.04357
521.099	0.895706
523.992	1.48462
526.885	0.907051
529.777	3.05586
532.67	0.001305
535.563	1.40073
538.455	2.23267
541.348	0.547096
544.241	0.764656
547.134	2.62856
550.026	4.13718
552.919	6.3552
555.812	5.94672
558.704	7.32604
561.597	8.33063
564.49	10.2879
567.382	13.2015
570.275	15.7844
573.168	16.2305
576.061	16.2367
578.953	16.3769
581.846	21.6646
584.739	19.8458
587.631	22.2097
590.524	25.3336
593.417	26.8115
596.309	28.1137
599.202	28.3438
602.095	28.6179
604.987	29.4499
607.88	27.8535
610.773	25.0889
613.666	22.0703
616.558	19.9853
619.451	17.4169
622.344	13.0928
625.236	11.4371
628.129	8.94445
631.022	8.03839
633.915	6.43429
636.807	6.38071
639.7	5.44614
642.593	4.88116
645.485	3.49857
648.378	3.54377
651.271	3.48986
654.163	2.5691
657.056	1.74288
659.949	1.86866
662.842	2.40512
665.734	2.06439
668.627	2.67512
671.52	4.29781
674.412	1.8597
677.305	1.42546
680.198	3.10623
683.091	0.5308
685.983	2.06909
688.876	1.6684
691.769	0.647995
694.661	0.856117
697.554	1.12703
700.447	0.409401
703.339	1.31826
706.232	0.202339
709.125	0.358871
712.018	0.678879
714.91	0.420517
717.803	0.617439
720.696	0.360447
723.588	1.14764
726.481	0.116947
729.374	0.306629
732.266	0.485004
735.159	0.73624
738.052	0.184109
740.944	1.04209
743.837	0.098614
746.73	0.9538
749.623	2.45536
752.515	0.548611
755.408	2.40574
758.301	0.581074
761.193	2.34543
764.086	3.57773
766.979	5.60973
769.871	9.49598
772.764	14.7597
775.657	16.6232
778.55	21.1547
781.442	22.1893
784.335	25.2526
787.228	25.9508
790.12	27.2366
793.013	28.4856
795.906	28.4076
798.798	28.4114
801.691	27.6708
804.584	28.5901
807.477	24.723
810.369	25.041
813.262	23.1328
816.155	23.9238
819.047	24.005
821.94	21.8525
824.833	19.7579
827.726	21.3609
830.618	19.1199
833.511	17.6047
836.404	14.5068
839.296	14.1859
842.189	13.691
845.082	12.8999
847.974	10.1585
850.867	7.93381
853.76	5.83164
856.653	4.45626
859.545	1.89513
862.438	1.2826
865.331	0.540462
868.223	0.543772
871.116	1.20676
874.009	0.903116
876.901	0.033413
879.794	0.985123
882.687	1.17208
885.58	0.384497
888.472	0.213694
891.365	0.895052
894.258	2.18053
897.15	1.72782
900.043	1.00356
902.936	0.93714
905.828	0.619749
908.721	0.150482
911.614	0.955795
914.506	2.37107
917.399	2.94534
920.292	1.49306
923.185	0.871815
926.077	1.20878
928.97	1.82035
931.863	3.29292
934.755	2.22757
937.648	3.05016
940.541	2.76687
943.433	0.862095
946.326	1.3164
949.219	1.47893
952.112	3.39133
955.004	3.44507
957.897	4.94681
960.79	3.70462
963.682	5.87248
966.575	4.51325
969.468	4.05774
972.361	4.88767
975.253	3.57526
978.146	3.20865
981.039	2.65321
983.931	1.74518
986.824	1.66559
989.717	4.22659
992.609	0.647747
995.502	0.55934
998.395	0.144676
1001.29	0.25893
1004.18	0.492702
1007.07	1.28608
1009.97	1.27182
1012.86	0.467884
1015.75	0.454906
1018.64	2.16582
1021.54	2.91654
1024.43	1.79379
1027.32	4.75422
1030.21	3.70642
1033.11	3.86479
1036	5.44291
1038.89	6.96434
1041.79	8.56773
1044.68	6.56941
1047.57	10.2139
1050.46	7.83443
1053.36	7.44135
1056.25	7.6504
1059.14	6.4661
1062.03	9.29734
1064.93	6.71441
1067.82	9.59349
1070.71	8.64506
1073.61	7.31634
1076.5	7.88279
1079.39	7.56239
1082.28	4.58968
1085.18	9.35831
1088.07	6.34642
1090.96	3.43822
1093.85	5.6236
1096.75	2.83334
1099.64	1.94027
1102.53	3.54164
1105.42	2.35361
1108.32	0.485043
1111.21	2.56597
1114.1	0.028305
1116.99	0.004025
1119.89	1.11303
1122.78	0.633186
1125.67	0.841125
1128.57	0.62199
1131.46	1.48821
1134.35	2.17314
1137.24	1.82446
1140.14	1.82916
1143.03	2.77957
1145.92	2.50773
1148.82	3.54552
1151.71	2.67634
1154.6	3.07377
1157.49	1.82616
1160.39	3.46941
1163.28	0.254868
1166.17	4.65601
1169.06	3.95701
1171.96	3.91584
1174.85	3.69614
1177.74	4.12143
1180.63	2.65194
1183.53	1.93605
1186.42	2.18848
1189.31	3.72252
1192.21	4.98073
1195.1	5.74452
1197.99	2.05401
1200.88	2.30122
1203.78	2.74312
1206.67	1.91968
1209.56	2.50326
1212.45	3.03207
1215.35	1.96648
1218.24	0.668034
1221.13	3.10244
1224.03	2.67508
1226.92	2.98062
1229.81	3.93752
1232.7	0.19585
1235.6	1.04525
1238.49	3.32762
1241.38	0.930477
1244.27	1.1902
1247.17	0.929646
1250.06	0.058472
1252.95	0.622021
1255.85	1.74936
1258.74	1.34857
1261.63	2.08872
1264.52	0.626972
1267.42	2.07197
1270.31	1.50773
1273.2	1.44132
1276.09	3.81699
1278.99	3.63426
1281.88	1.03287
1284.77	0.542072
