Measurement: Raman, 532 nm, unoriented, Raman Data Processed
Mineral: Libyan Desert glass
Rruff sample: R060357
Ideal chemistry: SiO_2_
Locality: Libyan Desert, Sahara Desert, Egypt
Source: Herb Obodda
Description: Pale tan amorphous fragment
Measured chemistry: Si_1.00_O_2_
Raman shift (cm-1)	intensity
158.471	0
161.363	0.771942
164.256	4.25999
167.149	10.2807
170.041	20.0974
172.934	21.8705
175.827	17.7457
178.72	11.2247
181.612	6.48744
184.505	10.3662
187.398	10.754
190.29	13.2148
193.183	11.2756
196.076	6.75647
198.968	7.95979
201.861	6.77635
204.754	7.54968
207.647	6.66479
210.539	9.2719
213.432	5.028
216.325	5.69019
219.217	2.95104
222.11	4.21094
225.003	1.50627
227.895	4.09036
230.788	1.66518
233.681	4.06818
236.573	5.2184
239.466	1.33096
242.359	2.09579
245.252	0.645569
248.144	1.98933
251.037	2.94226
253.93	2.18892
256.822	2.75893
259.715	2.01065
262.608	2.54073
265.5	2.92873
268.393	2.37642
271.286	1.16853
274.179	0.738205
277.071	2.32179
279.964	3.12924
282.857	2.04297
285.75	4.03909
288.642	7.23598
291.535	2.54755
294.428	3.39604
297.32	5.51089
300.213	2.78319
303.106	2.33606
305.998	0.208771
308.891	1.07019
311.784	0.095383
314.676	0.804352
317.569	1.12407
320.462	0.120407
323.355	3.53152
326.247	2.38442
329.14	0.985443
332.033	3.64146
334.925	0.372787
337.818	2.12158
340.711	0.322083
343.603	1.18607
346.496	0.1548
349.389	2.0313
352.281	0.738541
355.174	0.21167
358.067	1.63501
360.96	3.27443
363.852	2.22986
366.745	2.35908
369.638	4.42342
372.53	4.96941
375.423	4.82671
378.316	6.06618
381.209	6.91376
384.101	6.06448
386.994	8.90665
389.887	9.96977
392.779	7.58801
395.672	11.85
398.565	10.2121
401.457	14.2498
404.35	16.0346
407.243	17.3762
410.135	19.4459
413.028	20.2359
415.921	24.7782
418.814	23.4905
421.706	24.0448
424.599	25.5431
427.492	28.3015
430.384	32.1775
433.277	33.6983
436.17	34.8125
439.062	37.2854
441.955	35.9184
444.848	40.6645
447.741	41.7465
450.633	43.4072
453.526	42.4335
456.419	42.8489
459.311	44.6239
462.204	43.9118
465.097	44.226
467.99	41.9045
470.882	41.2201
473.775	46.2802
476.668	49.5888
479.56	53.1252
482.453	61.7548
485.346	70.0923
488.238	70.9012
491.131	69.8622
494.024	65.7167
496.916	52.7417
499.809	48.9948
502.702	37.1509
505.595	27.8539
508.487	21.2803
511.38	14.7005
514.273	9.71594
517.165	4.72187
520.058	2.90937
522.951	1.16327
525.844	2.62752
528.736	0.80262
531.629	1.61873
534.522	0.307854
537.414	0.148369
540.307	2.67368
543.2	0.537781
546.092	1.14753
548.985	2.00069
551.878	2.1585
554.771	2.11473
557.663	5.11848
560.556	3.53809
563.449	4.24687
566.341	6.04308
569.234	6.03238
572.127	8.55427
575.019	9.76559
577.912	10.709
580.805	8.51806
583.697	12.3287
586.59	12.5415
589.483	15.8363
592.376	18.9432
595.268	18.6465
598.161	18.555
601.054	18.791
603.946	16.8908
606.839	17.8645
609.732	15.428
612.625	13.2794
615.517	12.3769
618.41	10.7686
621.303	9.61083
624.195	7.54505
627.088	6.43316
629.981	4.65618
632.873	4.05455
635.766	3.67753
638.659	3.03823
641.552	2.49512
644.444	1.98465
647.337	0.630295
650.23	2.86981
653.122	2.13308
656.015	1.02047
658.908	2.11192
661.8	1.24138
664.693	1.25163
667.586	1.41461
670.479	1.51292
673.371	2.20499
676.264	0.493607
679.157	2.20073
682.049	2.16224
684.942	0.907307
687.835	2.59072
690.727	1.33822
693.62	1.8718
696.513	1.43642
699.405	0.519112
702.298	0.422512
705.191	0.275627
708.084	0.785393
710.976	0.118069
713.869	0.755089
716.762	0.528618
719.654	1.664
722.547	1.8751
725.44	0.717361
728.332	0.273808
731.225	1.70381
734.118	0.00687
737.011	1.59627
739.903	2.56833
742.796	1.24445
745.689	1.36155
748.581	1.83505
751.474	1.7771
754.367	1.55316
757.26	1.50237
760.152	4.1494
763.045	5.03886
765.938	5.29968
768.83	5.67219
771.723	9.65495
774.616	12.4941
777.508	14.989
780.401	16.8318
783.294	18.9886
786.187	19.2709
789.079	21.9801
791.972	19.6343
794.865	21.4495
797.757	19.9384
800.65	20.8232
803.543	21.4482
806.435	20.9365
809.328	20.3928
812.221	17.963
815.114	18.3359
818.006	17.2009
820.899	17.7578
823.792	17.1041
826.684	15.7524
829.577	14.4366
832.47	14.6697
835.362	14.2438
838.255	13.9739
841.148	10.4284
844.04	9.23235
846.933	7.9879
849.826	6.43161
852.719	6.02014
855.611	3.68945
858.504	2.29343
861.397	1.8821
864.289	2.68977
867.182	0.244198
870.075	0.172153
872.967	0.23148
875.86	0.220715
878.753	1.30869
881.646	0.726685
884.538	0.007748
887.431	2.70641
890.324	0.435425
893.216	0.076221
896.109	1.59622
899.002	1.69508
901.894	2.14297
904.787	2.19765
907.68	1.13684
910.573	0.047142
913.465	1.75684
916.358	2.63104
919.251	2.49409
922.143	3.73827
925.036	2.42625
927.929	3.36437
930.822	1.83538
933.714	3.1427
936.607	2.81528
939.5	3.02429
942.392	2.30418
945.285	3.1909
948.178	3.2636
951.07	3.07761
953.963	3.49009
956.856	2.45506
959.749	4.85678
962.641	2.38344
965.534	3.63238
968.427	2.91575
971.319	3.69767
974.212	2.21629
977.105	0.953323
979.997	1.31465
982.89	0.82011
985.783	1.85548
988.676	0.842037
991.568	0.316612
994.461	0.314476
997.354	1.62016
1000.25	0.016403
1003.14	0.596592
1006.03	1.83813
1008.92	1.04623
1011.82	0.93568
1014.71	1.38198
1017.6	2.70982
1020.5	1.60944
1023.39	4.10457
1026.28	2.75456
1029.17	3.29226
1032.07	2.778
1034.96	2.89333
1037.85	6.51833
1040.74	6.99263
1043.64	7.45647
1046.53	7.13876
1049.42	7.03001
1052.32	9.0463
1055.21	7.74886
1058.1	8.25053
1060.99	7.59595
1063.89	6.34248
1066.78	6.05223
1069.67	5.46741
1072.56	6.13343
1075.46	6.0093
1078.35	7.5078
1081.24	6.81114
1084.13	6.54056
1087.03	5.02489
1089.92	6.40701
1092.81	4.25384
1095.7	5.88106
1098.6	2.58436
1101.49	4.00885
1104.38	4.91721
1107.28	1.82833
1110.17	4.4916
1113.06	2.97269
1115.95	1.99838
1118.85	0.339706
1121.74	0.960052
1124.63	0.680099
1127.53	2.90849
1130.42	0.134087
1133.31	0.034508
1136.2	0.353104
1139.1	0.928223
1141.99	0.128548
1144.88	2.7111
1147.77	1.82118
1150.67	0.850189
1153.56	1.24571
1156.45	2.15504
1159.35	1.59131
1162.24	2.41646
1165.13	0.941559
1168.02	1.70052
1170.92	1.49341
1173.81	2.02181
1176.7	0.766609
1179.59	2.25541
1182.49	2.50085
1185.38	2.96429
1188.27	0.876358
1191.16	2.15102
1194.06	0.993324
1196.95	4.00645
1199.84	1.88477
1202.73	2.51961
1205.63	3.01832
1208.52	2.6542
1211.41	1.5297
1214.31	3.39768
1217.2	1.93754
1220.09	1.66904
1222.98	1.38609
1225.88	2.41919
1228.77	2.42665
1231.66	1.69654
1234.56	0.774055
1237.45	3.06631
1240.34	1.27981
1243.23	0.846855
1246.13	2.20569
1249.02	0.284454
1251.91	1.54261
1254.8	2.391
1257.7	1.13132
1260.59	0.046944
1263.48	1.62074
1266.38	0.322266
1269.27	1.75411
1272.16	1.50393
1275.05	2.94744
1277.95	2.7786
1280.84	2.80759
1283.73	2.06834
1286.62	1.26661
1289.52	0.028961
1292.41	0.854782
1295.3	2.30495
1298.19	1.10358
1301.09	3.27947
