Measurement: Raman, 780 nm, unoriented, Raman Data Processed
Mineral: Linarite
Rruff sample: R060130
Ideal chemistry: Pb^2+^Cu^2+^S^6+^O_4_(OH)_2_
Locality: Graham County, Arizona, USA
Source: University of Arizona Mineral Museum
Description: Azure-blue fragments in quartz
Measured chemistry: Pb_1.00_Cu_1.00_(S_1.00_O_4_)(OH)_2_
Raman shift (cm-1)	intensity
136.38	0
139.273	0.001342
142.166	0.399373
145.058	0.001486
147.951	0.032609
150.844	0.148731
153.736	0.657198
156.629	0.521547
159.522	0.370816
162.414	0.00661
165.307	0.526894
168.2	0.473168
171.093	0.476376
173.985	0.662931
176.878	0.42678
179.771	0.194696
182.663	0.236888
185.556	0.003157
188.449	0.320788
191.341	0.237938
194.234	0.005441
197.127	0.500643
200.019	0.046757
202.912	0.968103
205.805	1.00584
208.697	0.398816
211.59	0.905722
214.483	1.41389
217.376	1.14382
220.268	1.38014
223.161	1.35878
226.054	1.29232
228.946	2.04566
231.839	2.08827
234.732	2.30912
237.625	2.43068
240.517	2.70678
243.41	3.2808
246.303	2.91041
249.195	3.01209
252.088	1.79122
254.981	0.593495
257.873	0.947995
260.766	0.677324
263.659	0.346279
266.551	0.071707
269.444	0.122485
272.337	0.251327
275.23	0.147957
278.122	0.05175
281.015	0.139732
283.908	0.202448
286.8	0.040445
289.693	0.041285
292.586	0.37806
295.478	0.003688
298.371	0.003365
301.264	0.142397
304.157	0.201521
307.049	0.099356
309.942	0.735887
312.835	0.76673
315.727	0.694885
318.62	0.541781
321.513	0.968754
324.406	0.913353
327.298	1.11297
330.191	1.0227
333.084	1.38031
335.976	1.77742
338.869	1.85655
341.762	2.32286
344.654	1.79064
347.547	1.58593
350.44	1.45409
353.332	1.33851
356.225	1.82242
359.118	1.28875
362.01	1.07526
364.903	1.05239
367.796	0.990419
370.689	0.992328
373.581	0.291106
376.474	0.624699
379.367	0.619841
382.259	0.169569
385.152	0.196549
388.045	0.065447
390.938	0.188638
393.83	0.393239
396.723	0.00487
399.616	0.013128
402.508	0.025173
405.401	0.000449
408.294	0.012804
411.186	0.086358
414.079	0.022296
416.972	0.2025
419.865	0.312844
422.757	0.40713
425.65	0.478001
428.543	0.877138
431.435	1.124
434.328	0.972711
437.221	0.498459
440.113	0.480468
443.006	0.408892
445.899	0.500599
448.791	0.677876
451.684	1.38249
454.577	2.03576
457.47	2.02505
460.362	1.99044
463.255	1.01128
466.148	0.122154
469.04	0.108667
471.933	0.009674
474.826	0.119662
477.719	0.035832
480.611	0.023132
483.504	0.130595
486.397	0.121572
489.289	0.777536
492.182	0.859335
495.075	0.549334
497.967	1.01702
500.86	2.20099
503.753	2.12742
506.645	2.13966
509.538	2.22781
512.431	1.2555
515.323	1.42229
518.216	0.518513
521.109	0.818677
524.002	0.255132
526.894	0.080822
529.787	0.009815
532.68	0.031388
535.572	0.557114
538.465	0.344997
541.358	0.045441
544.25	0.055448
547.143	0.751222
550.036	1.14219
552.929	0.518016
555.821	0.414855
558.714	0.026306
561.607	0.64426
564.499	0.03577
567.392	0.672391
570.285	0.020683
573.178	0.292989
576.07	0.051905
578.963	0.517348
581.856	0.076092
584.748	0.684021
587.641	0.073009
590.534	0.346449
593.426	0.711949
596.319	0.732738
599.212	1.14228
602.105	0.898809
604.997	0.310929
607.89	1.31567
610.783	1.4293
613.675	0.62681
616.568	1.00099
619.461	1.41153
622.353	1.81388
625.246	2.51713
628.139	2.67871
631.031	2.10509
633.924	1.38741
636.817	0.111709
639.71	0.28421
642.602	0.726852
645.495	0.31873
648.388	0.005922
651.28	0.289607
654.173	0.505936
657.066	0.022807
659.958	0.047561
662.851	0.503695
665.744	0.008513
668.636	0.027934
671.529	0.003938
674.422	0.493308
677.315	0.825151
680.207	0.032156
683.1	0.011041
685.993	0.117847
688.885	0.029658
691.778	0.03655
694.671	0.737202
697.563	0.526005
700.456	0.217686
703.349	0.641087
706.242	0.131784
709.134	0.072456
712.027	0.86362
714.92	0.603649
717.812	0.668308
720.705	0.013715
723.598	0.53931
726.49	0.534649
729.383	1.09073
732.276	0.070712
735.169	0.173362
738.061	0.296537
740.954	0.120404
743.847	0.405604
746.739	0.146845
749.632	0.074149
752.525	0.010128
755.418	0.038113
758.31	0.373491
761.203	0.026833
764.096	0.074298
766.988	0.040567
769.881	0.580406
772.774	0.658522
775.666	0.583301
778.559	0.377822
781.452	0.023965
784.345	0.026344
787.237	0.531362
790.13	0.183194
793.023	0.523424
795.915	0.028672
798.808	0.421354
801.701	0.137266
804.593	0.520735
807.486	0.824421
810.379	0.418657
813.271	0.749118
816.164	0.451923
819.057	0.714793
821.949	0.571038
824.842	0.694654
827.735	0.001779
830.628	0.593099
833.52	0.527265
836.413	0.762138
839.306	0.618179
842.198	0.69817
845.091	0.608542
847.984	0.853657
850.876	0.695955
853.769	0.932133
856.662	0.806722
859.555	0.718054
862.447	0.512866
865.34	0.841804
868.233	0.974306
871.125	0.614402
874.018	0.752123
876.911	0.745028
879.803	1.03704
882.696	0.869498
885.589	1.03977
888.482	0.241003
891.374	0.291283
894.267	0.055171
897.16	0.152347
900.052	0.432987
902.945	0.021338
905.838	0.268418
908.731	0.007912
911.623	0.104738
914.516	0.026154
917.409	0.037687
920.301	0.061984
923.194	0.062393
926.087	0.318809
928.979	0.184414
931.872	0.038575
934.765	0.0155
937.658	0.154769
940.55	1.22004
943.443	1.69753
946.336	2.27705
949.228	3.7678
952.121	6.66727
955.014	11.3334
957.906	16.2651
960.799	24.2353
963.692	29.6413
966.584	27.7452
969.477	18.4065
972.37	8.67916
975.263	5.21499
978.155	2.8797
981.048	2.45737
983.941	1.54522
986.833	1.47176
989.726	1.27588
992.619	0.937401
995.511	0.473663
998.404	0.484638
1001.3	0.015699
1004.19	0.230335
1007.08	0.177222
1009.98	0.846992
1012.87	0.223859
1015.76	0.041853
1018.65	1.20786
1021.55	0.27006
1024.44	0.35083
1027.33	0.021804
1030.22	0.862879
1033.12	0.0706
1036.01	0.169003
1038.9	0.078066
1041.8	0.359943
1044.69	0.406889
1047.58	0.18206
1050.47	0.102995
1053.37	0.572592
1056.26	0.009067
1059.15	0.012731
1062.04	0.295474
1064.94	0.054988
1067.83	0.41269
1070.72	0.410476
1073.61	0.098049
1076.51	0.217953
1079.4	0.005197
1082.29	0.192871
1085.18	0.201372
1088.08	0.256399
1090.97	0.327608
1093.86	0.257692
1096.76	0.345455
1099.65	0.076747
1102.54	0.11932
1105.43	0.231811
1108.33	0.042705
1111.22	0.278689
1114.11	0.540818
1117.01	0.764178
1119.9	1.06653
1122.79	1.90045
1125.68	2.05513
1128.58	3.16366
1131.47	3.99992
1134.36	4.36547
1137.25	4.23117
1140.15	4.29099
1143.04	2.9652
1145.93	2.04362
1148.82	1.27958
1151.72	1.08736
1154.61	0.254513
1157.5	0.153214
1160.39	0.319772
1163.29	0.140595
1166.18	0.618002
1169.07	0.009409
1171.97	0.030507
1174.86	0.187768
1177.75	0.13324
1180.64	0.004619
1183.54	0.176352
1186.43	0.085963
1189.32	0.0768
1192.21	0.264033
1195.11	0.27491
1198	0.054176
1200.89	0.013316
1203.79	0.022527
1206.68	0.665909
1209.57	0.274048
1212.46	0.015023
1215.36	0.028316
1218.25	0.773803
1221.14	0.237116
1224.04	0.358938
1226.93	0.002944
1229.82	0.573661
1232.71	0.132975
1235.61	0.140286
1238.5	0.000575
1241.39	0.585649
1244.28	0.47535
1247.18	0.586667
1250.07	0.477929
1252.96	0.630016
1255.85	0.337035
1258.75	0.554429
1261.64	0.304628
1264.53	0.199366
1267.42	0.378004
1270.32	0.018844
1273.21	0.361556
1276.1	0.496848
1279	0.753403
1281.89	0.159297
1284.78	0.044161
