Measurement: Raman, 780 nm, unoriented, Raman Data Processed
Mineral: Liroconite
Rruff sample: R050535
Ideal chemistry: Cu^2+^_2_AlAs^5+^O_4_(OH)_4_4H_2_O
Locality: Wheal Gorland, St. Day, Cornwall, England
Source: University of Arizona Mineral Museum
Description: Blue tabular crystals
Raman shift (cm-1)	intensity
141.553	0
144.446	0.153479
147.338	0.340188
150.231	0.361547
153.124	0.607537
156.016	0.958056
158.909	1.21466
161.802	1.82927
164.694	2.0847
167.587	2.09704
170.48	2.04498
173.373	2.04621
176.265	2.28567
179.158	2.55503
182.051	2.3512
184.943	1.40745
187.836	0.830903
190.729	0.435907
193.621	0.374992
196.514	0.403459
199.407	0.246388
202.299	0.195847
205.192	0.048774
208.085	0.080106
210.978	0.050148
213.87	0.174865
216.763	0.080603
219.656	0.012233
222.548	0.017688
225.441	0.082297
228.334	0.123897
231.226	0.148908
234.119	0.138453
237.012	0.122524
239.905	0.198322
242.797	0.288593
245.69	0.246779
248.583	0.244725
251.475	0.223929
254.368	0.206609
257.261	0.279967
260.154	0.270058
263.046	0.183759
265.939	0.18195
268.832	0.149606
271.724	0.084057
274.617	0.016046
277.51	0.068148
280.402	0.249226
283.295	0.263785
286.188	0.435341
289.08	0.59486
291.973	0.461882
294.866	0.818621
297.759	0.804686
300.651	0.773189
303.544	0.818596
306.437	0.976412
309.329	0.821324
312.222	0.797465
315.115	0.789664
318.007	0.626598
320.9	0.655611
323.793	0.389107
326.686	0.32885
329.578	0.286708
332.471	0.296773
335.364	0.228134
338.256	0.143502
341.149	0.175623
344.042	0.193836
346.935	0.096891
349.827	0.191823
352.72	0.020157
355.613	0.152972
358.505	0.043328
361.398	0.145833
364.291	0.021828
367.183	0.066128
370.076	0.071504
372.969	0.10214
375.861	0.187102
378.754	0.066261
381.647	0.124157
384.54	0.069621
387.432	0.04981
390.325	0.075202
393.218	0.204534
396.11	0.027139
399.003	0.19636
401.896	0.215782
404.788	0.279313
407.681	0.235338
410.574	0.300789
413.467	0.360088
416.359	0.341793
419.252	0.314409
422.145	0.328338
425.037	0.289749
427.93	0.135454
430.823	0.080102
433.716	0.062054
436.608	0.035166
439.501	0.003892
442.394	0.028348
445.286	0.01992
448.179	0.083979
451.072	0.098305
453.964	0.138078
456.857	0.010056
459.75	0.142717
462.642	0.163331
465.535	0.192776
468.428	0.151828
471.321	0.103315
474.213	0.117362
477.106	0.178331
479.999	0.267872
482.891	0.159775
485.784	0.135136
488.677	0.297046
491.57	0.294839
494.462	0.252225
497.355	0.234489
500.248	0.151299
503.14	0.259977
506.033	0.29576
508.926	0.21554
511.818	0.093488
514.711	0.073938
517.604	0.146614
520.496	0.259059
523.389	0.086372
526.282	0.069603
529.175	0.099481
532.067	0.2263
534.96	0.005233
537.853	0.05645
540.745	0.181438
543.638	0.0575
546.531	0.10338
549.423	0.230285
552.316	0.231191
555.209	0.193429
558.102	0.21483
560.994	0.17697
563.887	0.17248
566.78	0.332721
569.672	0.21875
572.565	0.294038
575.458	0.181322
578.351	0.092826
581.243	0.143453
584.136	0.099401
587.029	0.162482
589.921	0.150207
592.814	0.180549
595.707	0.15843
598.599	0.12047
601.492	0.17139
604.385	0.08275
607.278	0.196471
610.17	0.000888
613.063	0.035593
615.956	0.017159
618.848	0.15065
621.741	0.044073
624.634	0.123705
627.526	0.119903
630.419	0.126459
633.312	0.039089
636.205	0.036421
639.097	0.111803
641.99	0.081043
644.883	0.028899
647.775	0.0661544
650.668	0.0998303
653.561	0.152641
656.453	0.213268
659.346	0.238828
662.239	0.194107
665.131	0.224574
668.024	0.120298
670.917	0.272201
673.81	0.153081
676.702	0.111847
679.595	0.136325
682.488	0.171771
685.38	0.168684
688.273	0.2002
691.166	0.230575
694.058	0.042848
696.951	0.094054
699.844	0.215136
702.737	0.126078
705.629	0.109392
708.522	0.266078
711.415	0.064934
714.307	0.159915
717.2	0.001974
720.093	0.112116
722.986	0.108356
725.878	0.216758
728.771	0.059996
731.664	0.008433
734.556	0.104491
737.449	0.08474
740.342	0.084154
743.234	0.039547
746.127	0.133245
749.02	0.033643
751.913	0.06462
754.805	0.086941
757.698	0.053293
760.591	0.004654
763.483	0.06188
766.376	0.029557
769.269	0.022545
772.161	0.12804
775.054	0.047672
777.947	0.014383
780.84	0.018505
783.732	0.066856
786.625	0.068341
789.518	0.035858
792.41	0.135853
795.303	0.117772
798.196	0.075447
801.088	0.145166
803.981	0.194918
806.874	0.042334
809.766	0.13431
812.659	0.141161
815.552	0.143914
818.445	0.261193
821.337	0.311521
824.23	0.419404
827.123	0.448357
830.015	0.509229
832.908	0.750378
835.801	0.940261
838.693	1.10628
841.586	1.61858
844.479	1.99647
847.372	2.53962
850.264	3.09596
853.157	3.61992
856.05	3.98956
858.942	4.35425
861.835	4.23331
864.728	3.81121
867.62	3.35792
870.513	2.59238
873.406	2.02213
876.299	1.62529
879.191	1.39483
882.084	1.21807
884.977	1.04147
887.869	0.867929
890.762	0.721431
893.655	0.497406
896.548	0.381137
899.44	0.318447
902.333	0.273344
905.226	0.297851
908.118	0.23237
911.011	0.112855
913.904	0.003636
916.796	0.20718
919.689	0.090342
922.582	0.022746
925.474	0.096864
928.367	0.119682
931.26	0.100289
934.153	0.001702
937.045	0.069538
939.938	0.156553
942.831	0.021721
945.723	0.045845
948.616	0.118233
951.509	0.212581
954.401	0.158427
957.294	0.073376
960.187	0.080167
963.08	0.164069
965.972	0.112689
968.865	0.199186
971.758	0.237952
974.65	0.109152
977.543	0.214083
980.436	0.09154
983.328	0.056961
986.221	0.045903
989.114	0.041057
992.006	0.04133
994.899	0.04987
997.792	0.048921
1000.68	0.089536
1003.58	0.121198
1006.47	0.034075
1009.36	0.023937
1012.25	0.116574
1015.15	0.106314
1018.04	0.119963
1020.93	0.094549
1023.83	0.07593
1026.72	0.145096
1029.61	0.071548
1032.5	0.169698
1035.4	0.103658
1038.29	0.182119
1041.18	0.189301
1044.08	0.122323
1046.97	0.056565
1049.86	0.073966
1052.75	0.020564
1055.65	0.131298
1058.54	0.208237
1061.43	0.000574
1064.32	0.08445
1067.22	0.108499
1070.11	0.085411
1073	0.146024
1075.89	0.031176
1078.79	0.096281
1081.68	0.061662
1084.57	0.209629
1087.47	0.020248
1090.36	0.09886
1093.25	0.12599
1096.14	0.002003
1099.04	0.090285
1101.93	0.024019
1104.82	0.174509
1107.71	0.098695
1110.61	0.142182
1113.5	0.076371
1116.39	0.089333
1119.29	0.130638
1122.18	0.102267
1125.07	0.082731
1127.96	0.223146
1130.86	0.173163
1133.75	0.12982
1136.64	0.039731
1139.53	0.193883
1142.43	0.177879
1145.32	0.258607
1148.21	0.136629
1151.11	0.12338
1154	0.212243
1156.89	0.107999
1159.78	0.05721
1162.68	0.120162
1165.57	0.132375
1168.46	0.172135
1171.35	0.091915
1174.25	0.116873
1177.14	0.063594
1180.03	0.114859
1182.92	0.05492
1185.82	0.011235
1188.71	0.223493
1191.6	0.052783
1194.49	0.121566
1197.39	0.126113
1200.28	0.110732
1203.17	0.151318
1206.07	0.007461
1208.96	0.069001
1211.85	0.137891
1214.74	0.048652
1217.64	0.129333
1220.53	0.165914
1223.42	0.022232
1226.32	0.007746
1229.21	0.068726
1232.1	0.09819
1234.99	0.17694
1237.89	0.027701
1240.78	0.158567
1243.67	0.133239
1246.56	0.13723
1249.46	0.093166
1252.35	0.02211
1255.24	0.071425
1258.13	0.076834
1261.03	0.097145
1263.92	0.072673
1266.81	0.047468
1269.71	0.007495
1272.6	0.143519
1275.49	0.116239
1278.38	0.044963
1281.28	0.123313
1284.17	0.002091
