Measurement: Raman, 785 nm, unoriented, Raman Data Processed
Mineral: Liskeardite
Rruff sample: R060768
Ideal chemistry: (Al,Fe^3+^)_32_(As^5+^O_4_)_18_(OH)_42_(H_2_O)_22_52H_2_O
Locality: Penberthy Croft mine, St. Hilary, Cornwall, England
Source: Michael Scott
Description: White fibrous earthy crust
Raman shift (cm-1)	intensity
152.383	0
155.276	43.699
158.169	2.76013
161.061	65.3726
163.954	90.0507
166.847	76.8144
169.739	106.439
172.632	100.666
175.525	81.301
178.417	45.556
181.31	80.9646
184.203	25.0214
187.096	36.6174
189.988	29.0552
192.881	9.94702
195.774	12.0552
198.666	20.192
201.559	47.6116
204.452	42.6194
207.344	36.3371
210.237	29.3168
213.13	14.0572
216.023	1.46326
218.915	14.6158
221.808	19.3939
224.701	40.7317
227.593	39.2522
230.486	50.2043
233.379	56.2901
236.271	47.6135
239.164	37.8217
242.057	3.25928
244.95	14.3573
247.842	10.6633
250.735	2.47015
253.628	30.5123
256.52	24.1746
259.413	65.3301
262.306	85.9939
265.198	81.3472
268.091	40.2143
270.984	81.1188
273.877	61.9656
276.769	66.5762
279.662	61.9824
282.555	48.0173
285.447	73.247
288.34	79.9084
291.233	64.9211
294.125	113.58
297.018	116.985
299.911	117.68
302.804	148.7
305.696	170.882
308.589	171.543
311.482	215.016
314.374	220.282
317.267	247.665
320.16	220.232
323.052	245.941
325.945	241.921
328.838	215.713
331.731	182.052
334.623	115.381
337.516	88.2647
340.409	20.9793
343.301	5.21588
346.194	11.3312
349.087	26.6985
351.979	36.3028
354.872	27.5823
357.765	54.1101
360.658	49.1018
363.55	88.4568
366.443	112.801
369.336	119.327
372.228	92.9124
375.121	66.0439
378.014	58.6321
380.906	67.83
383.799	71.2953
386.692	73.9364
389.585	99.5364
392.477	109.441
395.37	86.9272
398.263	71.5241
401.155	41.0238
404.048	31.59
406.941	23.4021
409.833	13.9858
412.726	39.5347
415.619	35.1811
418.512	6.33106
421.404	0.046265
424.297	3.54907
427.19	14.8535
430.082	5.03558
432.975	13.2676
435.868	12.3892
438.76	0.880432
441.653	3.20966
444.546	13.305
447.439	57.657
450.331	9.73419
453.224	1.50452
456.117	46.5745
459.009	23.7006
461.902	23.6738
464.795	3.58179
467.687	9.0141
470.58	24.5113
473.473	58.2965
476.366	55.0436
479.258	64.8055
482.151	63.9471
485.044	78.1809
487.936	120.215
490.829	107.524
493.722	103.39
496.614	142.238
499.507	149.35
502.4	123.514
505.293	153.525
508.185	158.155
511.078	165.311
513.971	160.122
516.863	201.737
519.756	172.853
522.649	157.046
525.541	182.542
528.434	156.778
531.327	112.876
534.219	78.6103
537.112	73.2168
540.005	75.4521
542.898	51.7455
545.79	20.926
548.683	10.1676
551.576	51.5893
554.468	20.2125
557.361	46.6143
560.254	54.3093
563.146	77.9288
566.039	76.5829
568.932	81.9516
571.825	116.308
574.717	136.587
577.61	135.427
580.503	123.41
583.395	128.108
586.288	144.488
589.181	136.932
592.073	126.885
594.966	148.159
597.859	123.499
600.752	99.5615
603.644	67.5613
606.537	32.1443
609.43	28.2674
612.322	27.7056
615.215	2.77734
618.108	22.8375
621	0.222229
623.893	3.73438
626.786	16.723
629.679	10.8135
632.571	10.3687
635.464	5.40723
638.357	20.7418
641.25	3.31445
644.142	21.2098
647.035	9.86346
649.928	9.44013
652.82	19.556
655.713	34.2135
658.606	20.6047
661.498	29.9458
664.391	17.3521
667.284	20.955
670.177	13.1256
673.069	0.16333
675.962	40.4255
678.855	15.8147
681.747	10.9205
684.64	30.9467
687.533	17.3612
690.425	26.0588
693.318	36.4266
696.211	35.2629
699.104	26.9289
701.996	42.2328
704.889	1.50464
707.782	48.4506
710.674	25.7355
713.567	47.1211
716.46	28.4614
719.352	35.9678
722.245	29.5248
725.138	46.8287
728.031	45.7212
730.923	25.5737
733.816	44.1811
736.709	27.9927
739.601	31.2202
742.494	44.9418
745.387	1.78015
748.279	42.9466
751.172	12.0548
754.065	30.9805
756.958	8.60877
759.85	24
762.743	23.1243
765.636	1.00018
768.528	20.9891
771.421	9.56873
774.314	4.25256
777.206	14.7659
780.099	4.24603
782.992	20.1238
785.885	3.25171
788.777	34.555
791.67	31.2944
794.563	65.5068
797.455	50.9534
800.348	52.5727
803.241	22.1848
806.133	46.7432
809.026	39.4139
811.919	75.9178
814.812	56.163
817.704	55.5478
820.597	51.9134
823.49	45.6665
826.382	66.9969
829.275	90.2901
832.168	86.3307
835.06	124.855
837.953	182.164
840.846	194.392
843.738	233.083
846.631	226.562
849.524	273.56
852.417	232.752
855.309	241.601
858.202	215.75
861.095	190.819
863.987	184.843
866.88	159.738
869.773	189.408
872.665	190.8
875.558	245.197
878.451	244.381
881.344	276.47
884.236	258.171
887.129	267.49
890.022	316.048
892.914	330.655
895.807	352.661
898.7	397.909
901.592	418.441
904.485	409.737
907.378	431.524
910.271	367.825
913.163	329.026
916.056	271.66
918.949	198.076
921.841	161.43
924.734	118.417
927.627	101.692
930.519	95.6056
933.412	54.7205
936.305	47.5566
939.198	63.4021
942.09	37.5102
944.983	5.89819
947.876	20.1705
950.768	7.45746
953.661	8.20331
956.554	11.8837
959.446	18.4112
962.339	11.1591
965.232	4.78332
968.125	14.607
971.017	31.1259
973.91	83.1089
976.803	106.459
979.695	147.511
982.588	135.987
985.481	90.0331
988.373	52.6746
991.266	29.158
994.159	9.18695
997.052	21.1221
999.944	37.7858
1002.84	41.6812
1005.73	24.9379
1008.62	41.3771
1011.51	40.3677
1014.41	20.596
1017.3	29.8901
1020.19	27.4605
1023.09	13.2186
1025.98	7.36957
1028.87	27.3001
1031.76	23.8513
1034.66	36.2961
1037.55	26.9883
1040.44	30.3861
1043.34	34.8706
1046.23	58.4837
1049.12	44.8033
1052.01	35.6727
1054.91	43.3561
1057.8	41.3991
1060.69	40.183
1063.58	18.2886
1066.48	53.3697
1069.37	56.7752
1072.26	34.4126
1075.15	39.1265
1078.05	22.8752
1080.94	37.7528
1083.83	27.2752
1086.72	16.0851
1089.62	41.3735
1092.51	27.0099
1095.4	10.7873
1098.3	32.8129
1101.19	42.5604
1104.08	31.3675
1106.97	16.3345
1109.87	14.9603
1112.76	12.8099
1115.65	1.83417
1118.55	35.7942
1121.44	20.1611
1124.33	19.4787
1127.22	20.4053
1130.12	32.1485
1133.01	17.3561
1135.9	0.964844
1138.79	2.26251
1141.69	8.97797
1144.58	39.1224
1147.47	27.5394
1150.37	0.87439
1153.26	4.46454
1156.15	19.7241
1159.04	8.71075
1161.93	5.2052
1164.83	19.2162
1167.72	7.82898
1170.61	7.39917
1173.51	22.6312
1176.4	31.1498
1179.29	14.5273
1182.18	19.8575
1185.08	33.6633
1187.97	23.4915
1190.86	10.1802
1193.76	19.2384
1196.65	8.38257
1199.54	27.5975
1202.43	29.2228
1205.33	21.1381
1208.22	16.9916
1211.11	2.66345
1214	7.43909
1216.9	20.7963
1219.79	3.12579
1222.68	4.68487
1225.58	1.24976
1228.47	11.0098
1231.36	35.3258
1234.25	29.7666
1237.15	53.1823
1240.04	9.91443
1242.93	36.1021
1245.82	36.6102
1248.72	23.2808
1251.61	6.51739
1254.5	14.6933
1257.39	6.02057
1260.29	11.65
1263.18	7.49127
