Measurement: Raman, 532 nm, unoriented, Raman Data Processed
Mineral: Lizardite
Rruff sample: R060006
Ideal chemistry: Mg_3_Si_2_O_5_(OH)_4_
Locality: Snarum, Norway
Source: University of Arizona Mineral Museum
Description: Green blebs of fine-grained serpentine habit, polytype 1T, associated with pearly hydrotalcite
Measured chemistry: (Mg_0.94_Fe^2+^_0.04_Al_0.02_)_3_(Si_0.97_Al_0.03_)_2_O_5_(OH)_4_
Raman shift (cm-1)	intensity
132.94	0
136.315	47.3828
139.689	12.7793
143.064	143.156
146.439	271.107
149.814	281.596
153.189	269.891
156.564	291.133
159.938	179.91
163.313	254.984
166.688	298.4
170.063	241.523
173.438	183.828
176.812	162.471
180.187	180.522
183.562	153.535
186.937	113.367
190.312	47.1016
193.686	59.3574
197.061	110.385
200.436	160.684
203.811	131.295
207.186	124.356
210.561	77.5898
213.935	194.17
217.31	287.322
220.685	469.934
224.06	674.508
227.435	958.715
230.81	1093.43
234.184	729.463
237.559	358.551
240.934	177.961
244.309	114.182
247.684	83.4238
251.058	96.8438
254.433	28.8359
257.808	14.625
261.183	21.5977
264.558	72.332
267.932	147.342
271.307	180.295
274.682	160.982
278.057	218.24
281.432	147.998
284.807	162.201
288.181	133.941
291.556	183.565
294.931	148.736
298.306	20.1504
301.681	81.3828
305.055	109.721
308.43	127.756
311.805	119.244
315.18	106.889
318.555	124.746
321.93	102.223
325.304	4.62305
328.679	4.24219
332.054	42.8555
335.429	18.8672
338.804	72.9492
342.178	144.467
345.553	219.938
348.928	205.029
352.303	110.957
355.678	43.8438
359.053	111.059
362.427	145.113
365.802	278.779
369.177	359.6
372.552	486.088
375.926	713.559
379.301	1063.46
382.676	1376.35
386.051	1215.26
389.426	686.234
392.801	391.978
396.175	173.928
399.55	116.885
402.925	119.232
406.3	27.7656
409.675	36.75
413.05	29.1055
416.424	40.4785
419.799	52.9844
423.174	91.3926
426.549	146.193
429.924	94.1465
433.298	104.418
436.673	28.3105
440.048	79.3613
443.423	88.8828
446.798	19.7695
450.173	60.75
453.547	51.3516
456.922	59.6348
460.297	124.772
463.672	119.672
467.047	106.648
470.421	92.7656
473.796	133.363
477.171	80.4883
480.546	88.3789
483.921	88.0156
487.296	103.602
490.67	50.0938
494.045	160.148
497.42	132.117
500.795	208.09
504.17	134.875
507.544	157.715
510.919	98.3047
514.294	6.32031
517.669	57.0195
521.044	90.8867
524.418	95.5078
527.793	116.551
531.168	62.168
534.543	96.0039
537.918	128.379
541.293	90.2617
544.667	73.9102
548.042	11.4453
551.417	73.4141
554.792	61.1094
558.167	4.27344
561.541	35.1914
564.916	38.5391
568.291	83.7891
571.666	102.496
575.041	74.8906
578.415	25.3086
581.79	5.51172
585.165	26.1445
588.54	119.906
591.915	84.793
595.29	26.2422
598.664	10.8438
602.039	58.7891
605.414	131.488
608.789	97.6914
612.164	78.6914
615.538	51.4141
618.913	5.41016
622.288	82.8906
625.663	114.977
629.038	137.891
632.413	20.1289
635.787	19.6289
639.162	136.707
642.537	139.672
645.912	119.004
649.287	48.8164
652.661	5.52734
656.036	59.8594
659.411	93.8477
662.786	179.961
666.161	178.926
669.535	185.637
672.91	272.008
676.285	447.215
679.66	555.894
683.035	650.074
686.41	804.41
689.784	819.461
693.159	791.254
696.534	472.09
699.909	354.453
703.284	261.801
706.659	231.477
710.033	194.527
713.408	158.465
716.783	164.488
720.158	124.379
723.533	162.629
726.907	101.875
730.282	79.1016
733.657	30.0039
737.032	126.234
740.407	24.0859
743.782	21.2109
747.156	7.90234
750.531	23.1055
753.906	10.5039
757.281	12.6758
760.656	3.34766
764.03	101.242
767.405	146.977
770.78	142.34
774.155	51.4766
777.53	91.7617
780.904	183.543
784.279	259.977
787.654	150.129
791.029	21.3008
794.404	45.9062
797.779	56.8516
801.153	15.9336
804.528	79.0273
807.903	27.9023
811.278	143.102
814.653	34.457
818.027	35.8789
821.402	42.0195
824.777	15.3711
828.152	12.9883
831.527	70.9336
834.902	138.492
838.276	147.824
841.651	149.035
845.026	147.871
848.401	73.0898
851.776	43.4727
855.15	66.9805
858.525	161.457
861.9	140.445
865.275	139.664
868.65	192.184
872.024	216.43
875.399	114.824
878.774	2.95312
882.149	23.6172
885.524	100.988
888.899	10.6875
892.273	62.25
895.648	64.9727
899.023	156.25
902.398	172.824
905.773	198.25
909.148	96.1641
912.522	144.902
915.897	108.988
919.272	105.258
922.647	90.6914
926.021	60.3594
929.396	136.188
932.771	116.125
936.146	110.008
939.521	3.375
942.896	106.234
946.27	98.7227
949.645	119.414
953.02	17.3867
956.395	78.2695
959.77	4.52734
963.144	13.3359
966.519	66.3359
969.894	34.5938
973.269	13.9688
976.644	36.8359
980.019	60.3047
983.393	176.809
986.768	51.3828
990.143	75.4805
993.518	108.758
996.893	183.894
1000.27	69.8281
1003.64	78.0078
1007.02	114.098
1010.39	123.891
1013.77	95.2031
1017.14	96.957
1020.52	130.867
1023.89	179.152
1027.27	165.269
1030.64	226.586
1034.02	129.727
1037.39	216.68
1040.77	106.938
1044.14	91.4258
1047.52	23.7656
1050.89	89.1172
1054.27	21.4023
1057.64	49.75
1061.01	73.7109
1064.39	6.45312
1067.76	29.1641
1071.14	78.6055
1074.51	173.617
1077.89	257.887
1081.26	138.793
1084.64	98.3281
1088.01	155.637
1091.39	179.156
1094.76	138.535
1098.14	4.70312
1101.51	6.51953
1104.89	14.6523
1108.26	62.8242
1111.64	79.2227
1115.01	24.4297
1118.39	16.4141
1121.76	64.6328
1125.14	213.824
1128.51	25.8281
1131.88	97.3164
1135.26	91.7617
1138.63	110.992
1142.01	116.852
1145.38	147.336
1148.76	199.879
1152.13	113.438
1155.51	117.133
1158.88	67.8906
1162.26	81.2656
1165.63	197.09
1169.01	130.234
1172.38	6.87109
1175.76	10.0469
1179.13	121.684
1182.51	2
1185.88	8.05859
1189.26	44.1562
1192.63	23.3789
1196.01	77.9648
1199.38	74.6445
1202.76	81.1797
1206.13	74.8281
1209.51	88.4766
1212.88	57.3516
1216.26	234.609
1219.63	306.231
1223.01	173.922
1226.38	176.606
1229.76	132.844
1233.13	125.434
1236.51	119.801
1239.88	39.8555
1243.25	64.0586
1246.63	206.457
1250	239.734
1253.38	109.156
1256.75	95.9766
1260.13	193.191
1263.5	125.859
1266.88	186.914
1270.25	112.191
1273.63	87.9727
1277	133.75
1280.38	122.106
1283.75	153.797
1287.13	188.297
1290.5	181.746
1293.88	109.285
1297.25	9.53516
1300.63	93.2539
1304	0
