Measurement: Raman, 532 nm, unoriented, Raman Data Processed
Mineral: Lollingite
Rruff sample: R060668
Ideal chemistry: FeAs_2_
Locality: Aghbar near Bou-Azzer, Morocco
Source: Michael Scott
Description: Gray metallic spears radiating in spherical aggregates, associated with arsenopyrite and skutterudite
Measured chemistry: (Fe_0.80_Co_0.20_)_Σ=1_(As_1.85_S_0.15_)_Σ=2_
Raman shift (cm-1)	intensity
112.363	0
115.738	128.391
119.113	155.016
122.487	409.552
125.862	279.482
129.237	341.03
132.612	287.301
135.986	286.28
139.361	516.288
142.736	255.473
146.111	257.258
149.486	197.317
152.861	157.045
156.235	142.403
159.61	107.501
162.985	179.95
166.36	120.296
169.735	113.43
173.109	58.348
176.484	117.436
179.859	157.662
183.234	128.639
186.609	86.43
189.984	162.175
193.358	208.093
196.733	194.185
200.108	141.04
203.483	157.508
206.858	209.154
210.232	225.831
213.607	67.095
216.982	61.963
220.357	102.989
223.732	1.972
227.107	14.384
230.481	117.888
233.856	183.804
237.231	240.366
240.606	389.359
243.981	414.027
247.355	193.528
250.73	109.222
254.105	36.974
257.48	40.312
260.855	111.537
264.229	124.615
267.604	146.912
270.979	129.507
274.354	41.552
277.729	42.876
281.103	5.516
284.478	3.983
287.853	8.355
291.228	24.154
294.603	52.619
297.978	13.46
301.352	2.453
304.727	39.295
308.102	17.896
311.477	30.308
314.852	8.515
318.226	22.478
321.601	31.885
324.976	5.976
328.351	22.955
331.726	39.21
335.1	8.102
338.475	6.452
341.85	5.386
345.225	50.693
348.6	16.246
351.975	5.779
355.349	35.958
358.724	11.865
362.099	34.688
365.474	46.317
368.849	0.549
372.224	8.215
375.598	18.07
378.973	16.378
382.348	15.65
385.723	42.853
389.098	13.461
392.472	6.323
395.847	18.197
399.222	54.645
402.597	27.778
405.972	57.912
409.346	1.696
412.721	9.247
416.096	6.875
419.471	1.714
422.846	49.831
426.22	14.675
429.595	18.504
432.97	45.09
436.345	2.724
439.72	38.415
443.095	21.717
446.469	14.385
449.844	44.622
453.219	40.879
456.594	5.333
459.969	4.085
463.343	31.384
466.718	29.817
470.093	17.257
473.468	63.912
476.843	10.158
480.217	16.612
483.592	41.391
486.967	51.819
490.342	27.512
493.717	13.28
497.092	3.804
500.466	26.524
503.841	41.384
507.216	18.317
510.591	18.107
513.966	21.218
517.341	17.616
520.715	41.889
524.09	37.988
527.465	45.286
530.84	25.08
534.214	21.232
537.589	9.921
540.964	64.85
544.339	4.819
547.714	34.334
551.089	22.607
554.463	17.112
557.838	43.45
561.213	50.967
564.588	67.069
567.963	27.123
571.338	21.338
574.712	6.637
578.087	29.103
581.462	25.575
584.837	28.454
588.211	7.814
591.586	2.248
594.961	64.276
598.336	29.334
601.711	12.173
605.086	17.546
608.46	33.471
611.835	41.13
615.21	53.225
618.585	20.626
621.96	4.2
625.334	38.922
628.709	21.675
632.084	26.821
635.459	34.868
638.834	39.373
642.209	37.966
645.583	53.776
648.958	3.731
652.333	8.013
655.708	25.399
659.083	31.259
662.458	22.406
665.832	42.488
669.207	34.352
672.582	28.616
675.957	35.412
679.331	28.837
682.706	4.125
686.081	90.087
689.456	18.07
692.831	29.023
696.206	43.757
699.58	14.973
702.955	38.862
706.33	70.234
709.705	15.626
713.08	36.898
716.455	19.364
719.829	69.258
723.204	58.101
726.579	51.903
729.954	25.189
733.328	33.102
736.703	54.825
740.078	27.034
743.453	38.999
746.828	43.742
750.203	82.408
753.577	21.527
756.952	57.537
760.327	0.946
763.702	22.036
767.077	12.245
770.451	17.613
773.826	58.183
777.201	25.4
780.576	28.744
783.951	25.629
787.326	43.073
790.7	82.402
794.075	34.83
797.45	21.266
800.825	14.276
804.2	20.701
807.574	23.519
810.949	10.371
814.324	29.747
817.699	20.372
821.074	4.084
824.448	7.13
827.823	11.518
831.198	38.099
834.573	36.714
837.948	34.165
841.323	29.455
844.697	16.534
848.072	60.992
851.447	23.089
854.822	25.58
858.197	5.127
861.571	17.319
864.946	39.716
868.321	65.001
871.696	27.641
875.071	24.726
878.445	47.392
881.82	42.196
885.195	5.987
888.57	28.991
891.945	71.367
895.32	1.679
898.694	17.122
902.069	20.328
905.444	62.857
908.819	23.66
912.194	65.46
915.568	54.746
918.943	49.874
922.318	50.482
925.693	45.577
929.068	39.185
932.443	41.377
935.817	27.629
939.192	40.437
942.567	1.369
945.942	54.266
949.317	50.212
952.691	22.806
956.066	13.066
959.441	12.269
962.816	38.915
966.191	27.474
969.565	1.759
972.94	55.791
976.315	57.342
979.69	46.809
983.065	41.764
986.44	37.647
989.814	41.527
993.189	69.996
996.564	46.951
999.939	81.258
1003.31	106.965
1006.69	44.319
1010.06	78.217
1013.44	21.741
1016.81	109.629
1020.19	104.127
1023.56	100.057
1026.94	99.222
1030.31	87.638
1033.69	88.248
1037.06	86.359
1040.44	114.275
1043.81	100.227
1047.19	132.075
1050.56	154.239
1053.94	81.453
1057.31	101.021
1060.68	119.233
1064.06	105.503
1067.43	89.889
1070.81	59.41
1074.18	50.21
1077.56	42.583
1080.93	52.816
1084.31	99.95
1087.68	85.187
1091.06	61.438
1094.43	69.834
1097.81	52.72
1101.18	57.957
1104.56	6.814
1107.93	33.771
1111.31	52.138
1114.68	54.79
1118.06	17.544
1121.43	66.693
1124.81	9.305
1128.18	51.719
1131.56	32.758
1134.93	28.178
1138.31	11.04
1141.68	26.801
1145.06	6.876
1148.43	12.967
1151.81	2.576
1155.18	9.945
1158.56	36.288
1161.93	38.172
1165.31	25.785
1168.68	31.271
1172.05	47.862
1175.43	20.861
1178.8	28.41
1182.18	13.208
1185.55	1.768
1188.93	13.155
1192.3	20.457
1195.68	11.939
1199.05	50.829
1202.43	42.391
1205.8	12.428
1209.18	0.248
1212.55	29.692
1215.93	22.113
1219.3	19.442
1222.68	16.627
1226.05	0.38
1229.43	15.875
1232.8	21.064
1236.18	17.58
1239.55	18.705
1242.92	39.496
1246.3	23.44
1249.67	20.959
1253.05	9.077
1256.42	11.688
1259.8	6.424
1263.17	14.06
1266.55	23.33
1269.92	24.037
1273.3	23.869
