Measurement: Raman, 532 nm, unoriented, Raman Data Processed
Mineral: Lollingite
Rruff sample: R070592
Ideal chemistry: FeAs_2_
Locality: Ebisu mine, Hirukawa, Gifu Prefecture, Honshu, Japan
Source: James Shigley
Description: Steel gray massive associated with quartz
Measured chemistry: Fe_1.05_Bi_0.01_As_2_
Raman shift (cm-1)	intensity
155.154	0
158.047	1.27734
160.94	50.6065
163.833	239.894
166.725	157.638
169.618	653.81
172.511	589.949
175.403	753.602
178.296	876.433
181.189	1019.7
184.081	1371.28
186.974	1613.69
189.867	1623.67
192.759	1720.36
195.652	1595.39
198.545	1416.01
201.438	991.398
204.33	246.92
207.223	67.8252
210.116	68.2441
213.008	91.4199
215.901	76.8887
218.794	265.256
221.686	297.878
224.579	472.962
227.472	675.815
230.364	811.639
233.257	1058.42
236.15	970.54
239.043	1628.64
241.935	996.947
244.828	593.663
247.721	548.812
250.613	703.759
253.506	638.819
256.399	720.509
259.291	749.635
262.184	999.723
265.077	990.552
267.97	1001.38
270.862	673.586
273.755	432.119
276.648	356.897
279.54	256.639
282.433	257.634
285.326	242.124
288.219	274.88
291.111	205.698
294.004	123.054
296.897	191.426
299.789	206.567
302.682	127.585
305.575	181.746
308.467	128.666
311.36	126.265
314.253	200.656
317.146	132.339
320.038	14.251
322.931	128.1
325.824	148.116
328.716	5.02051
331.609	150.675
334.502	117.018
337.394	72.7744
340.287	79.0986
343.18	141.297
346.072	86.0742
348.965	182.87
351.858	30.3721
354.75	63.9228
357.643	15.3565
360.536	15.5879
363.429	15.6641
366.321	102.728
369.214	58.4053
372.107	89.3897
374.999	101.042
377.892	94.6914
380.785	22.0459
383.678	55.4932
386.57	35.7461
389.463	7.59668
392.356	69.7402
395.248	30.6904
398.141	141.106
401.034	3.24609
403.926	53.4463
406.819	43.5195
409.712	19.2295
412.604	19.958
415.497	34.4658
418.39	41.4775
421.283	19.9541
424.175	68.6074
427.068	174.157
429.961	117.278
432.853	163.694
435.746	13.5615
438.639	78.1963
441.531	69.6953
444.424	18.3916
447.317	193.944
450.21	100.294
453.102	167.25
455.995	145.882
458.888	25.0566
461.78	44.0127
464.673	124.632
467.566	85.041
470.459	145.652
473.351	109.405
476.244	166.215
479.137	167.442
482.029	141.533
484.922	124.223
487.815	64.7139
490.707	37.7568
493.6	16.1113
496.493	63.0801
499.385	7.48242
502.278	8.80859
505.171	103.498
508.063	103.339
510.956	49.0518
513.849	43.8887
516.742	69.4902
519.634	14.1924
522.527	11.1191
525.42	8.53223
528.312	48.2256
531.205	127.769
534.098	111.777
536.99	97.9717
539.883	222.504
542.776	153.434
545.669	182.641
548.561	271.521
551.454	235.834
554.347	223.571
557.239	260.205
560.132	254.828
563.025	188.019
565.918	180.868
568.81	266.511
571.703	220.269
574.596	186.227
577.488	211.897
580.381	192.343
583.274	166.972
586.166	189.981
589.059	189.039
591.952	90.5391
594.845	112.477
597.737	171.299
600.63	118.178
603.523	152.994
606.415	134.327
609.308	43.5869
612.201	74.6572
615.093	68.6865
617.986	41.8018
620.879	76.293
623.771	75.1602
626.664	45.4658
629.557	32.9131
632.45	94.6103
635.342	117.81
638.235	47.2432
641.128	83.1553
644.02	2.12988
646.913	106.616
649.806	66.2676
652.698	21.5576
655.591	41.5225
658.484	111.689
661.376	67.5644
664.269	77.1875
667.162	47.4902
670.055	35.8789
672.947	28.2539
675.84	12.7695
678.733	91.7978
681.625	76.835
684.518	33.335
687.411	10.4062
690.303	19.2627
693.196	104.509
696.089	29.5
698.982	51.6719
701.874	42.1279
704.767	12.0752
707.66	68.665
710.552	67.2549
713.445	70.4502
716.338	143.927
719.231	27.748
722.123	35.2734
725.016	89.9863
727.909	38.6846
730.801	56.9834
733.694	17.3232
736.587	40.21
739.479	125.888
742.372	84.2295
745.265	74.0684
748.158	46.6592
751.05	81.7686
753.943	118.999
756.836	125.238
759.728	11.2373
762.621	24.7451
765.514	98.5352
768.406	109.632
771.299	67.0527
774.192	131.974
777.085	63.9248
779.977	121.141
782.87	53.9541
785.763	57.1338
788.655	39.8672
791.548	104.45
794.441	107.191
797.333	78.7647
800.226	41.75
803.119	61.0752
806.011	45.9912
808.904	49.294
811.797	53.3701
814.69	90.5576
817.582	53.7275
820.475	63.2217
823.368	3.65723
826.26	17.7871
829.153	79.2969
832.046	74.416
834.938	85.1777
837.831	83.6338
840.724	108.798
843.616	65.7647
846.509	67.2705
849.402	39.2002
852.295	37.8438
855.187	9.84375
858.08	63.0332
860.973	5.99023
863.865	88.251
866.758	105.139
869.651	73.9434
872.543	56.9287
875.436	18.4961
878.329	8.70312
881.222	91.2002
884.114	162.614
887.007	78.3916
889.9	133.296
892.792	92.1562
895.685	59.4902
898.578	169.019
901.471	168.621
904.363	42.915
907.256	25.2441
910.149	111.232
913.041	70.6699
915.934	198.52
918.827	93.3106
921.719	104.289
924.612	101.355
927.505	88.4023
930.398	105.97
933.29	107.088
936.183	117.87
939.076	126.186
941.968	204.651
944.861	88.7852
947.754	38.0527
950.646	109.825
953.539	49.4941
956.432	20.9404
959.324	250.522
962.217	1.05859
965.11	122.32
968.003	37.4121
970.895	13.5166
973.788	44.5928
976.681	5.32422
979.573	52.5478
982.466	80.04
985.359	70.6064
988.251	47.6377
991.144	131.045
994.037	82.0234
996.93	27.1211
999.822	10.6729
1002.72	35.5576
1005.61	59.4883
1008.5	17.7295
1011.39	139.997
1014.29	98.7217
1017.18	45.3213
1020.07	100.88
1022.96	84.3184
1025.86	170.748
1028.75	196.934
1031.64	112.346
1034.54	145.478
1037.43	251.753
1040.32	200.113
1043.21	256.045
1046.11	104.469
1049	207.598
1051.89	182.891
1054.78	131.035
1057.68	164.212
1060.57	182.44
1063.46	125.347
1066.35	216.341
1069.25	204.897
1072.14	196.657
1075.03	281.893
1077.92	339.59
1080.82	258.984
1083.71	370.338
1086.6	273.33
1089.5	378.815
1092.39	357.306
1095.28	343.537
1098.17	237.864
1101.07	273.862
1103.96	297.651
1106.85	272.616
1109.74	203.939
1112.64	111.537
1115.53	252.088
1118.42	41.6514
1121.32	93.3799
1124.21	19.9961
1127.1	149.325
1129.99	108.421
1132.89	75.6631
1135.78	151.058
1138.67	94.1338
1141.56	94.8096
1144.46	35.3066
1147.35	23.9922
1150.24	102.745
1153.13	54.2295
1156.03	101.652
1158.92	24.9824
1161.81	23.8428
1164.71	91.6484
1167.6	7.69238
1170.49	78.9189
1173.38	13.1494
1176.28	11.0801
1179.17	139.699
1182.06	113.327
1184.95	93.4756
1187.85	84.8799
1190.74	79.3369
1193.63	96.7764
1196.53	3.41309
1199.42	23.7285
1202.31	63.417
1205.2	104.883
1208.1	160.943
1210.99	178.414
1213.88	216.184
1216.78	100.619
1219.67	164.711
1222.56	176.43
1225.45	91.8496
1228.35	169.826
1231.24	106.359
1234.13	32.1914
1237.02	25.2578
1239.92	11.416
1242.81	58.625
1245.7	10.2246
1248.59	118.029
1251.49	46.8281
1254.38	257.295
1257.27	136.922
1260.16	137.531
1263.06	92.0215
1265.95	107.475
1268.84	0.398438
1271.74	63.4531
1274.63	28.3125
