Measurement: Raman, 780 nm, unoriented, Raman Data Processed
Mineral: Lollingite
Rruff sample: R070592
Ideal chemistry: FeAs_2_
Locality: Ebisu mine, Hirukawa, Gifu Prefecture, Honshu, Japan
Source: James Shigley
Description: Steel gray massive associated with quartz
Measured chemistry: Fe_1.05_Bi_0.01_As_2_
Raman shift (cm-1)	intensity
156.389	0
159.282	9.04102
162.174	165.525
165.067	89.7188
167.96	134.101
170.852	396.426
173.745	330.99
176.638	319.214
179.531	418.622
182.423	483.429
185.316	519.592
188.209	546.673
191.101	431.537
193.994	414.442
196.887	117.924
199.78	110.209
202.672	70.5928
205.565	72.4316
208.458	6.87891
211.35	47.7158
214.243	14.3887
217.136	108.919
220.028	276.291
222.921	322.483
225.814	461.864
228.707	498.71
231.599	732.135
234.492	747.045
237.385	583.612
240.277	607.894
243.17	528.492
246.063	579.419
248.955	462.713
251.848	409.121
254.741	449.192
257.634	483.357
260.526	398.441
263.419	489.459
266.312	414.81
269.204	297.923
272.097	163.548
274.99	52.001
277.882	38.2109
280.775	27.6826
283.668	94.332
286.56	65.793
289.453	66.2891
292.346	138.263
295.239	26.6885
298.131	88.2529
301.024	121.984
303.917	97.4668
306.81	79.8223
309.702	39.4609
312.595	75.4023
315.488	65.4292
318.38	71.3066
321.273	148.381
324.166	81.1973
327.058	101.926
329.951	125.178
332.844	42.2847
335.736	14.2969
338.629	108.814
341.522	42.4302
344.415	131.711
347.307	113.671
350.2	100.58
353.093	18.6992
355.985	120.396
358.878	104.473
361.771	85.0195
364.663	90.6172
367.556	75.8799
370.449	73.0234
373.342	23.5264
376.234	111.09
379.127	81.3198
382.02	21.8843
384.912	61.5967
387.805	41.9912
390.698	16.8296
393.591	94.5435
396.483	19.5347
399.376	26.0102
402.269	36.7993
405.161	25.1748
408.054	1.86279
410.947	6.45752
413.839	25.707
416.732	25.3335
419.625	8.22998
422.517	44.2988
425.41	63.5918
428.303	109.446
431.196	63.0132
434.088	77.1231
436.981	8.32178
439.874	21.4009
442.766	42.6435
445.659	68.4404
448.552	137.164
451.445	32.1206
454.337	121.812
457.23	29.5532
460.123	103.806
463.015	106.199
465.908	104.26
468.801	87.9487
471.693	47.5117
474.586	82.3032
477.479	87.8516
480.372	93.6064
483.264	79.8804
486.157	87.1909
489.05	124.858
491.942	58.8755
494.835	49.0552
497.728	55.6148
500.62	28.3247
503.513	128.216
506.406	67.4053
509.299	51.8423
512.191	18.2114
515.084	74.9126
517.977	23.209
520.869	93.2202
523.762	64.2339
526.655	34.9023
529.548	12.0869
532.44	12.6938
535.333	60.7368
538.226	20.1724
541.118	90.7778
544.011	48.3648
546.904	177.696
549.796	198.322
552.689	173.977
555.582	180.135
558.475	123.352
561.367	84.4209
564.26	39.2944
567.153	39.3584
570.045	145.175
572.938	8.55957
575.831	80.1704
578.723	5.67041
581.616	115.086
584.509	76.8447
587.402	63.4238
590.294	61.2378
593.187	60.7744
596.08	52.0156
598.972	100.472
601.865	1.96973
604.758	66.6758
607.65	4.68164
610.543	21.6592
613.436	36.7534
616.328	69.564
619.221	38.3135
622.114	41.5889
625.007	31.6733
627.899	20.2158
630.792	41.3208
633.685	69.3955
636.577	70.8125
639.47	65.1118
642.363	15.3198
645.255	37.7959
648.148	94.9233
651.041	18.1729
653.934	28.5181
656.826	105.71
659.719	37.4326
662.612	49.5874
665.504	60.2563
668.397	47.3828
671.29	31.7944
674.183	84.874
677.075	16.2119
679.968	22.918
682.861	9.64746
685.753	50.3721
688.646	52.9409
691.539	70.7695
694.432	63.645
697.324	46.6274
700.217	9.89648
703.11	87.0967
706.002	11.5396
708.895	73.2598
711.788	26.5093
714.68	43.1118
717.573	69.9976
720.466	76.3931
723.359	92.0176
726.251	89.1968
729.144	62.4053
732.037	80.3345
734.929	32.7261
737.822	71.187
740.715	31.3872
743.607	35.7793
746.5	47.9028
749.393	55.3101
752.285	26.5186
755.178	51.7827
758.071	65.1299
760.964	21.2832
763.856	69.832
766.749	75.2949
769.642	26.3975
772.534	57.9712
775.427	51.5459
778.32	56.6387
781.212	41.6528
784.105	48.396
786.998	53.4683
789.891	36.4605
792.783	33.4448
795.676	27.2852
798.569	48.5791
801.461	13.0649
804.354	66.98
807.247	43.3174
810.139	19.6719
813.032	13.3115
815.925	7.46533
818.818	31.9917
821.71	23.4551
824.603	89.7607
827.496	88.126
830.388	26.6963
833.281	58.8154
836.174	60.9668
839.067	92.1719
841.959	95.0015
844.852	42.8892
847.745	38.9077
850.637	80.4883
853.53	118.59
856.423	35.1851
859.315	72.6719
862.208	10.3325
865.101	31.2852
867.994	40.7803
870.886	40.3018
873.779	30.6616
876.672	91.0254
879.564	50.2642
882.457	10.456
885.35	50.7651
888.242	39.728
891.135	79.645
894.028	55.4019
896.92	34.7202
899.813	49.0352
902.706	80.2954
905.599	60.0435
908.491	13.1899
911.384	60.794
914.277	27.9189
917.169	52.4038
920.062	73.0352
922.955	88.7993
925.847	29.7651
928.74	75.6728
931.633	22.1421
934.526	32.1265
937.418	40.9014
940.311	3.90869
943.204	2.03613
946.096	7.03809
948.989	0.461914
951.882	17.4932
954.774	16.3203
957.667	56.2485
960.56	58.7383
963.453	9.30078
966.345	93.1899
969.238	71.6269
972.131	7.64648
975.023	38.6148
977.916	2.4043
980.809	71.374
983.702	46.4917
986.594	68.3281
989.487	40.3511
992.38	60.3784
995.272	50.0527
998.165	55.564
1001.06	7.71777
1003.95	92.478
1006.84	29.5127
1009.74	92.3398
1012.63	83.043
1015.52	35.9976
1018.41	104.935
1021.31	67.5796
1024.2	92.1572
1027.09	117.085
1029.98	131.865
1032.88	110.708
1035.77	105.653
1038.66	123.516
1041.56	107.649
1044.45	109.265
1047.34	83.6001
1050.23	94.1397
1053.13	107.713
1056.02	103.383
1058.91	102.088
1061.8	64.0063
1064.7	100.648
1067.59	139.477
1070.48	98.5088
1073.38	101.548
1076.27	58.7056
1079.16	78.3486
1082.05	73.1846
1084.95	87.2104
1087.84	74.8945
1090.73	67.8091
1093.62	31.8335
1096.52	52.0523
1099.41	63.1401
1102.3	17.0645
1105.19	31.749
1108.09	68.8721
1110.98	14.2104
1113.87	41.6245
1116.77	41.7105
1119.66	1.14356
1122.55	79.4312
1125.44	18.042
1128.34	35.9995
1131.23	9.0293
1134.12	14.2896
1137.02	38.8994
1139.91	3.05859
1142.8	2.11133
1145.69	32.6313
1148.59	24.5605
1151.48	38.5889
1154.37	28.4458
1157.26	10.853
1160.16	26.6592
1163.05	45.7622
1165.94	28.7153
1168.83	25.1592
1171.73	3.354
1174.62	48.1895
1177.51	56.8545
1180.4	65.7671
1183.3	0.546875
1186.19	63.3315
1189.08	81.6519
1191.98	57.4116
1194.87	86.1787
1197.76	46.4268
1200.65	73.2471
1203.55	68.8652
1206.44	48.0215
1209.33	32.7812
1212.22	52.7895
1215.12	50.4458
1218.01	21.5127
1220.9	43.0176
1223.8	44.5234
1226.69	28.2798
1229.58	22.9941
1232.47	96.3589
1235.37	31.5034
1238.26	83.8667
1241.15	45.1162
1244.05	47.7725
1246.94	1.17676
1249.83	41.2734
1252.72	24.0342
1255.62	37.1636
1258.51	38.4194
1261.4	16.5435
1264.29	91.708
1267.19	86.082
1270.08	23.1279
1272.97	40.978
