Measurement: Raman, 532 nm, unoriented, Raman Data Processed
Mineral: Lollingite
Rruff sample: R060185
Ideal chemistry: FeAs_2_
Locality: MW Claim, Seagull Batholith, Cassiar Mountains, Yukon, Canada
Source: Lloyd Twaites
Description: Steel-gray metallic fragments
Measured chemistry: Fe_1.00_(As_1.90_S_0.10_)_Î£=2_
Raman shift (cm-1)	intensity
135.583	0
138.958	4.52109
142.332	0.319729
145.707	0.337276
149.082	0.535244
152.457	2.99993
155.832	4.74122
159.207	1.70678
162.581	1.20623
165.956	0.594488
169.331	2.068
172.706	2.01559
176.081	2.09272
179.455	2.11481
182.83	0.412111
186.205	0.685173
189.58	1.68932
192.955	0.554029
196.329	1.30684
199.704	0.00486
203.079	0.967304
206.454	0.083923
209.829	0.088093
213.204	0.35293
216.578	1.31234
219.953	1.41756
223.328	2.95382
226.703	3.78713
230.078	6.01796
233.452	8.16679
236.827	11.6183
240.202	14.7758
243.577	7.9394
246.952	2.8901
250.327	2.09747
253.701	2.95892
257.076	3.1026
260.451	4.76991
263.826	8.72682
267.201	10.2586
270.576	6.59447
273.95	3.02001
277.325	2.00277
280.7	0.961079
284.075	0.732099
287.45	0.829908
290.825	1.69543
294.199	1.17474
297.574	0.907442
300.949	0.057648
304.324	0.139545
307.699	0.081986
311.073	0.750042
314.448	0.273188
317.823	1.0397
321.198	0.852274
324.573	0.873479
327.947	1.08422
331.322	0.700649
334.697	1.37206
338.072	0.980216
341.447	0.773491
344.822	0.232591
348.196	1.16428
351.571	1.68701
354.946	0.1312
358.321	1.67469
361.696	0.178776
365.071	1.44832
368.445	0.171206
371.82	0.771712
375.195	1.22131
378.57	0.252389
381.945	0.412827
385.32	0.402557
388.694	0.823287
392.069	0.473664
395.444	0.887845
398.819	0.691339
402.194	0.971717
405.568	0.400792
408.943	0.120655
412.318	1.1546
415.693	0.33438
419.068	0.398458
422.442	0.405519
425.817	1.19846
429.192	0.708919
432.567	0.335735
435.942	1.15206
439.317	0.295408
442.691	0.384746
446.066	1.60655
449.441	0.847969
452.816	0.954172
456.191	1.9747
459.566	1.76854
462.94	1.02431
466.315	1.49225
469.69	1.07585
473.065	0.81407
476.44	1.28484
479.815	1.21359
483.189	2.0663
486.564	1.5769
489.939	1.34065
493.314	1.30721
496.689	0.857551
500.063	0.95136
503.438	1.1093
506.813	0.8515
510.188	0.362543
513.563	0.229557
516.938	0.512901
520.312	0.073421
523.687	0.620951
527.062	0.279266
530.437	0.458606
533.812	0.050841
537.187	0.270733
540.561	0.450064
543.936	0.552766
547.311	0.936701
550.686	0.761261
554.061	1.19572
557.435	0.367121
560.81	0.457749
564.185	0.504168
567.56	0.48044
570.935	0.422715
574.309	0.2499
577.684	0.698519
581.059	0.553159
584.434	0.780087
587.809	1.02774
591.184	0.62118
594.558	1.05596
597.933	0.429403
601.308	1.28312
604.683	0.427048
608.058	0.583728
611.433	0.01471
614.807	0.3353
618.182	0.20331
621.557	0.308389
624.932	0.730021
628.307	1.18518
631.682	0.469995
635.056	1.01347
638.431	0.754963
641.806	0.048833
645.181	0.526122
648.556	0.976382
651.93	0.32386
655.305	0.604832
658.68	0.380035
662.055	0.842797
665.43	0.228108
668.804	0.226055
672.179	0.420403
675.554	1.10654
678.929	0.776989
682.304	0.449112
685.679	0.470773
689.053	0.812967
692.428	0.521071
695.803	1.06634
699.178	1.22107
702.553	0.661171
705.928	0.590392
709.302	0.758112
712.677	0.982512
716.052	0.157223
719.427	0.912971
722.802	0.883796
726.177	0.179423
729.551	1.3777
732.926	0.764659
736.301	0.879381
739.676	0.157533
743.051	0.225471
746.425	0.867868
749.8	0.705474
753.175	0.801428
756.55	0.193756
759.925	0.965196
763.299	0.168129
766.674	0.504545
770.049	0.589037
773.424	0.568132
776.799	0.598968
780.174	1.53281
783.548	0.369274
786.923	1.31846
790.298	0.502351
793.673	0.910479
797.048	0.722654
800.423	0.487123
803.797	0.704687
807.172	0.720391
810.547	0.275256
813.922	1.22405
817.297	1.12056
820.671	0.319684
824.046	0.785622
827.421	1.26554
830.796	1.30021
834.171	0.382501
837.545	1.29017
840.92	2.06408
844.295	1.47386
847.67	1.11272
851.045	1.64878
854.42	0.970152
857.794	0.848982
861.169	1.77517
864.544	1.8651
867.919	1.06083
871.294	0.841431
874.669	1.29603
878.043	1.52694
881.418	0.921762
884.793	1.08533
888.168	0.944045
891.543	0.064729
894.918	0.643312
898.292	0.2655
901.667	0.080285
905.042	0.627144
908.417	0.380622
911.792	0.530267
915.166	0.108634
918.541	0.400966
921.916	0.813172
925.291	0.431445
928.666	0.307924
932.04	1.04586
935.415	1.08142
938.79	0.468903
942.165	0.483891
945.54	0.66468
948.915	0.850491
952.289	0.834483
955.664	0.056036
959.039	0.203941
962.414	0.181818
965.789	0.100086
969.164	0.473732
972.538	0.068622
975.913	1.28407
979.288	0.816219
982.663	0.856923
986.038	0.622643
989.413	0.48507
992.787	0.950465
996.162	0.686526
999.537	0.516332
1002.91	0.84606
1006.29	1.13686
1009.66	1.40664
1013.04	1.59571
1016.41	1.40927
1019.79	1.22224
1023.16	1.16251
1026.54	1.55081
1029.91	1.29886
1033.29	0.739604
1036.66	1.71758
1040.04	1.83944
1043.41	1.35058
1046.78	0.618865
1050.16	1.34777
1053.53	0.21972
1056.91	1.18956
1060.28	1.37906
1063.66	0.528967
1067.03	0.61156
1070.41	0.900781
1073.78	0.127904
1077.16	1.48312
1080.53	1.24896
1083.91	0.70856
1087.28	0.31685
1090.66	0.559571
1094.03	0.527455
1097.41	0.249712
1100.78	0.062253
1104.16	0.332923
1107.53	0.200347
1110.91	0.408026
1114.28	0.145139
1117.66	1.39747
1121.03	0.740875
1124.4	0.014651
1127.78	0.352053
1131.15	0.694
1134.53	0.536385
1137.9	0.050139
1141.28	0.481058
1144.65	0.487461
1148.03	0.904259
1151.4	0.030034
1154.78	0.490273
1158.15	0.381928
1161.53	1.07564
1164.9	0.735839
1168.28	0.401186
1171.65	0.080221
1175.03	1.28926
1178.4	0.481766
1181.78	0.891281
1185.15	0.459452
1188.53	0.789237
1191.9	1.70614
1195.28	0.572423
1198.65	1.34956
1202.03	0.655387
1205.4	0.595662
1208.78	1.34431
1212.15	0.609137
1215.53	0.510595
1218.9	1.41875
1222.28	1.36241
1225.65	0.066182
1229.03	0.322068
1232.4	0.862256
1235.77	0.926403
1239.15	0.416373
1242.52	0.357116
1245.9	0.768266
1249.27	1.37902
1252.65	1.06284
1256.02	0.46731
1259.4	1.77863
1262.77	1.09706
1266.15	0.118801
1269.52	0.040818
1272.9	1.2171
1276.27	0.609357
1279.65	0.520431
1283.02	0.433654
1286.4	1.06713
1289.77	1.1008
1293.15	0.684207
1296.52	1.27509
1299.9	0.812892
