Measurement: Raman, 532 nm, unoriented, Raman Data Processed
Mineral: Lotharmeyerite
Rruff sample: R060862
Ideal chemistry: CaZn^2+^_2_(As^5+^O_4_)_2_2H_2_O
Locality: Mapimi, Durango, Mexico
Source: Michael Scott
Description: Dark reddish brown bladed crystals, crystal structure is reported by Yang et al (2012)
Measured chemistry: Ca_0.99_(Zn_1.01_Mn^+3^_0.85_)_Σ=1.86_(As_1.03_O_4_)_2_·[(OH)_0.85_ (H_2_O)_1.17_] ; (Total low,  mineral unstable under electron beam, blades are lotharmeyerite, botryoidal material is Mn oxide?)
Raman shift (cm-1)	intensity
159.917	0
162.81	0.019123
165.702	1.65812
168.595	2.4343
171.488	7.07023
174.381	9.49229
177.273	10.0591
180.166	11.2881
183.059	12.944
185.951	16.2508
188.844	19.5614
191.737	23.0004
194.629	23.0772
197.522	23.4166
200.415	23.1245
203.308	23.9737
206.2	23.2163
209.093	25.7859
211.986	23.7562
214.878	22.9583
217.771	24.2861
220.664	23.3108
223.556	20.333
226.449	20.0291
229.342	17.3157
232.234	15.372
235.127	13.4047
238.02	13.2355
240.913	10.114
243.805	9.95281
246.698	7.49848
249.591	7.38786
252.483	6.6352
255.376	6.59115
258.269	5.57843
261.161	4.1915
264.054	3.00736
266.947	3.10392
269.84	2.52326
272.732	1.12405
275.625	1.73572
278.518	1.15934
281.41	0.71476
284.303	0.935623
287.196	0.776611
290.089	2.43076
292.981	0.207428
295.874	0.818321
298.767	4.07184
301.659	4.27168
304.552	9.56373
307.445	11.3443
310.337	15.3059
313.23	18.0922
316.123	18.6839
319.015	21.7274
321.908	21.2477
324.801	20.0524
327.694	19.1937
330.586	22.5454
333.479	26.4027
336.372	27.9238
339.264	30.6174
342.157	32.3679
345.05	33.9621
347.942	33.0245
350.835	31.224
353.728	32.395
356.621	29.1394
359.513	25.9291
362.406	22.0573
365.299	14.5867
368.191	11.4203
371.084	8.047
373.977	6.73887
376.87	3.43287
379.762	2.84927
382.655	1.43065
385.548	1.24396
388.44	0.309174
391.333	0.217079
394.226	1.30505
397.118	0.403992
400.011	0.19368
402.904	2.44241
405.796	2.01769
408.689	4.54299
411.582	4.52823
414.475	2.91963
417.367	4.1446
420.26	3.752
423.153	0.840454
426.045	1.62878
428.938	0.279213
431.831	0.496872
434.724	0.654617
437.616	1.82994
440.509	0.279236
443.402	1.26108
446.294	2.74824
449.187	5.65017
452.08	5.1814
454.972	4.64336
457.865	5.7971
460.758	5.36523
463.651	5.82835
466.543	5.53271
469.436	6.39277
472.329	6.9846
475.221	7.12175
478.114	8.96664
481.007	9.63521
483.899	11.2489
486.792	13.5257
489.685	17.776
492.577	23.3645
495.47	30.5124
498.363	41.5209
501.256	52.1977
504.148	64.273
507.041	75.8737
509.934	81.4446
512.826	84.7194
515.719	82.0557
518.612	75.5549
521.505	68.7883
524.397	62.9505
527.29	56.8038
530.183	50.8722
533.075	46.037
535.968	41.0764
538.861	35.5755
541.753	30.5418
544.646	23.9231
547.539	17.4819
550.432	11.8842
553.324	8.20975
556.217	4.16099
559.11	1.43639
562.002	1.27685
564.895	0.402794
567.788	0.195992
570.68	1.0779
573.573	3.42003
576.466	4.46873
579.359	6.7219
582.251	6.97131
585.144	10.1243
588.037	9.69405
590.929	10.5862
593.822	11.6296
596.715	9.44765
599.607	7.60106
602.5	5.56111
605.393	2.5491
608.285	2.61453
611.178	2.32601
614.071	1.42438
616.964	0.525478
619.856	0.752148
622.749	0.649357
625.642	0.404427
628.534	0.237392
631.427	1.21031
634.32	0.437634
637.212	0.154003
640.105	0.397991
642.998	0.732254
645.891	0.130726
648.783	0.35593
651.676	0.26572
654.569	1.6266
657.461	2.68763
660.354	1.71957
663.247	1.53542
666.139	2.67059
669.032	3.58825
671.925	2.89172
674.818	3.5193
677.71	2.86852
680.603	3.54972
683.496	4.20704
686.388	4.09853
689.281	3.08747
692.174	3.58934
695.067	2.93186
697.959	2.18236
700.852	1.85153
703.745	0.808613
706.637	0.637905
709.53	0.832363
712.423	0.411617
715.315	0.462025
718.208	0.001095
721.101	0.334072
723.994	0.486721
726.886	0.578617
729.779	1.40754
732.672	1.94731
735.564	2.35488
738.457	3.40297
741.35	4.72024
744.242	5.49835
747.135	5.7749
750.028	6.56777
752.92	6.85936
755.813	7.49723
758.706	8.70473
761.599	7.96466
764.491	7.36784
767.384	7.51622
770.277	6.48789
773.169	5.76479
776.062	4.69735
778.955	4.2317
781.847	3.94788
784.74	0.929321
787.633	0.888824
790.526	0.31102
793.418	0.105988
796.311	1.52008
799.204	0.698944
802.096	0.166962
804.989	2.10269
807.882	3.08501
810.774	5.45656
813.667	9.30891
816.56	13.3882
819.453	18.4906
822.345	23.7855
825.238	30.7894
828.131	37.1165
831.023	42.8264
833.916	49.3995
836.809	52.2448
839.702	55.0873
842.594	55.9499
845.487	55.2708
848.38	53.0967
851.272	46.7986
854.165	42.0339
857.058	39.4779
859.95	35.938
862.843	35.8717
865.736	34.5775
868.629	38.3257
871.521	40.6442
874.414	43.7712
877.307	40.509
880.199	40.5832
883.092	36.6868
885.985	30.9764
888.877	27.1938
891.77	21.9074
894.663	18.549
897.556	15.2371
900.448	13.3085
903.341	12.2082
906.234	10.8426
909.126	9.98889
912.019	7.67432
914.912	6.04997
917.804	6.21744
920.697	5.75049
923.59	4.294
926.482	3.05173
929.375	2.41003
932.268	0.009243
935.161	0.65377
938.053	0.046337
940.946	1.2201
943.839	0.574562
946.731	0.145107
949.624	1.05135
952.517	0.25795
955.409	1.24703
958.302	0.864193
961.195	1.84689
964.088	2.26454
966.98	2.2649
969.873	3.40112
972.766	3.39572
975.658	4.39876
978.551	2.96407
981.444	3.93034
984.337	4.80217
987.229	5.40442
990.122	4.81417
993.015	5.09993
995.907	4.30396
998.8	4.73125
1001.69	5.49338
1004.59	5.43113
1007.48	4.16062
1010.37	4.26788
1013.26	3.60553
1016.16	3.64033
1019.05	4.00544
1021.94	4.80403
1024.83	4.15342
1027.73	3.58366
1030.62	4.98605
1033.51	5.49404
1036.4	4.32465
1039.3	3.97468
1042.19	4.26277
1045.08	2.25257
1047.98	3.66812
1050.87	2.81684
1053.76	1.80675
1056.65	2.39267
1059.55	1.95463
1062.44	1.96779
1065.33	1.57328
1068.22	0.498833
1071.12	1.13731
1074.01	0.458149
1076.9	0.337189
1079.8	0.114029
1082.69	0.417496
1085.58	0.751999
1088.47	1.36039
1091.37	0.789558
1094.26	0.748146
1097.15	0.805271
1100.04	0.402718
1102.94	0.230846
1105.83	0.181126
1108.72	0.428314
1111.62	0.803978
1114.51	0.741032
1117.4	0.170483
1120.29	0.35516
1123.19	0.340263
1126.08	0.873322
1128.97	0.015995
1131.86	0.195629
1134.76	0.114094
1137.65	0.624268
1140.54	1.70039
1143.43	1.0932
1146.33	0.915646
1149.22	0.653147
1152.11	0.269703
1155.01	0.853161
1157.9	0.43951
1160.79	1.51461
1163.68	1.21748
1166.58	0.950006
1169.47	1.90408
1172.36	1.46735
1175.26	0.668375
1178.15	0.073877
1181.04	1.8244
1183.93	0.812859
1186.83	1.27931
1189.72	1.19749
1192.61	1.72157
1195.5	1.71593
1198.4	0.736292
1201.29	0.75799
1204.18	1.22969
1207.07	1.68758
1209.97	0.361111
1212.86	1.66999
1215.75	0.654396
1218.64	1.30856
1221.54	0.828085
1224.43	1.33894
1227.32	0.457338
1230.22	0.158314
1233.11	0.585812
1236	1.59032
1238.89	0.738459
1241.79	0.446917
1244.68	1.46498
1247.57	1.35713
1250.46	1.31804
1253.36	2.25053
1256.25	1.36758
1259.14	1.10713
1262.04	0.379498
1264.93	1.37957
1267.82	1.33406
1270.71	1.10245
1273.61	0.838093
1276.5	1.71557
1279.39	0.77832
1282.29	0.073765
1285.18	1.01338
1288.07	1.86686
1290.96	2.07668
1293.86	0.548674
1296.75	0.962177
1299.64	1.18037
1302.53	0.160973
