Measurement: Raman, 780 nm, unoriented, Raman Data Processed
Mineral: Lovozerite
Rruff sample: R120159
Ideal chemistry: Na_3_CaZr^4+^Si_6_O_15_(OH)_3_
Locality: Poudrette quarry, Mont Saint-Hilaire, Rouville RCM, Montérégie, Québec, Canada
Source: Donald Doell
Description: Yellow massive on ussingite (R140806).
Raman shift (cm-1)	intensity
115.666	0
119.041	5.27936
122.415	3.61963
125.79	0.522278
129.165	5.31555
132.54	1.71558
135.915	7.81476
139.29	12.1157
142.664	15.9969
146.039	17.9087
149.414	20.1887
152.789	23.0343
156.163	23.6965
159.538	26.3779
162.913	22.8104
166.288	23.693
169.663	21.3585
173.038	17.7529
176.412	17.6648
179.787	16.316
183.162	11.6254
186.537	11.6796
189.912	8.73102
193.286	8.57001
196.661	5.72925
200.036	5.72913
203.411	6.70508
206.786	0.976563
210.161	1.40875
213.535	1.44366
216.91	0.695801
220.285	1.73126
223.66	2.57825
227.035	3.02557
230.409	4.4837
233.784	5.52063
237.159	9.81439
240.534	11.3179
243.909	9.83105
247.284	15.072
250.658	11.9945
254.033	12.1038
257.408	11.4277
260.783	15.3572
264.158	11.4298
267.532	10.4983
270.907	8.11206
274.282	8.14313
277.657	5.79285
281.032	2.80841
284.406	2.15692
287.781	2.46905
291.156	2.54724
294.531	1.16272
297.906	3.80945
301.281	4.08545
304.655	5.44348
308.03	4.14002
311.405	5.61993
314.78	6.86383
318.155	7.41309
321.529	8.66302
324.904	7.40253
328.279	6.78168
331.654	1.83984
335.029	2.6217
338.404	6.12689
341.778	3.1452
345.153	6.8288
348.528	3.1416
351.903	3.31494
355.278	0.26178
358.652	0.382935
362.027	1.64386
365.402	0.15741
368.777	4.80127
372.152	0.457581
375.526	0.726624
378.901	1.88898
382.276	0.166138
385.651	2.05078
389.026	2.85364
392.401	1.8136
395.775	1.89679
399.15	0.537964
402.525	0.277222
405.9	3.51587
409.275	1.53113
412.649	2.92481
416.024	1.50104
419.399	8.02924
422.774	7.33075
426.149	7.98315
429.524	10.5539
432.898	7.95068
436.273	7.41663
439.648	3.17365
443.023	4.3006
446.398	5.92236
449.772	4.75427
453.147	4.35828
456.522	4.25238
459.897	3.6991
463.272	2.38409
466.647	3.92401
470.021	6.21936
473.396	8.53149
476.771	5.19354
480.146	7.13098
483.521	14.8122
486.895	16.6885
490.27	24.5905
493.645	30.2162
497.02	39.3544
500.395	46.7089
503.769	53.2239
507.144	54.1825
510.519	55.3231
513.894	52.613
517.269	50.147
520.644	43.6198
524.018	35.8788
527.393	36.9695
530.768	30.6245
534.143	27.9085
537.518	21.7698
540.892	21.3505
544.267	15.19
547.642	12.3892
551.017	10.6488
554.392	7.03754
557.766	6.224
561.141	2.5058
564.516	0.289673
567.891	3.03912
571.266	1.79736
574.64	1.76807
578.015	0.428772
581.39	1.81848
584.765	1.74622
588.14	2.38867
591.515	5.05267
594.889	7.43713
598.264	10.8441
601.639	10.8577
605.014	8.82977
608.389	10.5567
611.764	6.69293
615.138	2.41705
618.513	1.11359
621.888	4.05798
625.263	4.66864
628.638	3.77533
632.012	5.586
635.387	5.72107
638.762	3.89117
642.137	0.259521
645.512	3.47327
648.886	3.92139
652.261	1.71289
655.636	1.07501
659.011	3.7027
662.386	1.10059
665.76	3.18793
669.135	5.45685
672.51	2.77283
675.885	1.64758
679.26	0.745911
682.635	0.362427
686.009	3.8219
689.384	7.14465
692.759	6.99811
696.134	6.70355
699.509	5.84326
702.884	7.85998
706.258	8.13177
709.633	10.0627
713.008	10.4025
716.383	7.98572
719.758	10.5638
723.132	6.8985
726.507	3.98102
729.882	6.56995
733.257	5.82446
736.632	8.5462
740.006	4.64654
743.381	2.46429
746.756	4.42425
750.131	6.65942
753.506	3.03479
756.88	5.2691
760.255	0.592468
763.63	0.527161
767.005	1.60748
770.38	1.24506
773.755	1.23938
777.129	4.82294
780.504	2.03882
783.879	0.05957
787.254	1.96704
790.629	2.91815
794.003	0.861267
797.378	1.96161
800.753	2.71588
804.128	1.03906
807.503	3.20221
810.878	2.46948
814.252	1.86108
817.627	1.66211
821.002	4.35034
824.377	3.67615
827.752	6.44788
831.126	4.41138
834.501	3.88916
837.876	6.37744
841.251	7.35425
844.626	6.00732
848	5.82117
851.375	8.82764
854.75	4.83752
858.125	8.81433
861.5	2.2981
864.875	5.31848
868.249	2.67493
871.624	5.32629
874.999	2.06152
878.374	5.9425
881.749	0.989258
885.123	3.4895
888.498	0.891602
891.873	5.03796
895.248	1.57886
898.623	0.729492
901.997	0.14978
905.372	1.84802
908.747	0.896606
912.122	3.08752
915.497	1.2572
918.872	1.27917
922.246	2.75891
925.621	1.4978
928.996	2.38025
932.371	1.80664
935.746	2.17322
939.12	3.81543
942.495	3.82544
945.87	1.45972
949.245	2.80078
952.62	1.76392
955.995	10.9445
959.369	11.5998
962.744	9.08276
966.119	11.43
969.494	13.8108
972.869	15.7311
976.243	16.4036
979.618	17.2592
982.993	22.6252
986.368	23.3679
989.743	24.7402
993.117	27.2023
996.492	24.2065
999.867	25.5638
1003.24	23.3695
1006.62	23.9206
1009.99	14.9637
1013.37	16.2614
1016.74	14.243
1020.12	8.84888
1023.49	4.46484
1026.87	1.38733
1030.24	2.64648
1033.62	3.66296
1036.99	3.09558
1040.37	0.478394
1043.74	2.91943
1047.12	0.419922
1050.49	3.91528
1053.86	3.59253
1057.24	2.6499
1060.61	3.19861
1063.99	0.147339
1067.36	1.84326
1070.74	0.097168
1074.11	1.65906
1077.49	0.378906
1080.86	2.03565
1084.24	3.8706
1087.61	8.17127
1090.99	2.73596
1094.36	5.7804
1097.74	4.78064
1101.11	6.63354
1104.49	7.8595
1107.86	7.63904
1111.24	8.07812
1114.61	6.38611
1117.99	2.32947
1121.36	5.94873
1124.73	2.55554
1128.11	4.78979
1131.48	3.15857
1134.86	6.90222
1138.23	3.97253
1141.61	4.84155
1144.98	2.90405
1148.36	2.7926
1151.73	4.35303
1155.11	1.28613
1158.48	6.62256
1161.86	9.58557
1165.23	5.0033
1168.61	10.4999
1171.98	9.51294
1175.36	10.4456
1178.73	8.81531
1182.11	8.83069
1185.48	8.95679
1188.86	7.05847
1192.23	8.15869
1195.61	9.54675
1198.98	4.16504
1202.36	5.30432
1205.73	11.6813
1209.11	7.6781
1212.48	7.02307
1215.86	2.8208
1219.23	0.084961
1222.61	5.32019
1225.98	7.51709
1229.35	3.44299
1232.73	7.53186
1236.1	11.4597
1239.48	9.28845
1242.85	8.10608
1246.23	14.1112
1249.6	8.45911
1252.98	13.3628
1256.35	12.1082
1259.73	12.1129
1263.1	14.5477
1266.48	10.5294
1269.85	6.2749
1273.23	5.31018
1276.6	3.48401
1279.98	0.773682
1283.35	2.47864
