Measurement: Raman, 780 nm, unoriented, Raman Data Processed
Mineral: Lovozerite
Rruff sample: R080107
Ideal chemistry: Na_3_CaZr^4+^Si_6_O_15_(OH)_3_
Locality: Mont Saint-Hilaire, Quebec, Canada
Source: William W. Pinch
Description: Small tan blocky crystals associated with sodalite and microcline
Raman shift (cm-1)	intensity
140.253	0
143.146	3.44421
146.038	2.81928
148.931	5.04675
151.824	7.17102
154.716	8.32184
157.609	8.58935
160.502	7.86841
163.395	9.04742
166.287	8.04181
169.18	8.2666
172.073	8.11682
174.965	6.66797
177.858	8.05151
180.751	2.89905
183.643	1.3205
186.536	4.24133
189.429	2.99884
192.322	1.74213
195.214	0.880981
198.107	0.264954
201	0.916565
203.892	0.202393
206.785	0.368286
209.678	1.42603
212.571	1.53076
215.463	0.227905
218.356	0.932983
221.249	2.90552
224.141	4.06006
227.034	4.87073
229.927	6.52484
232.819	9.5885
235.712	13.2026
238.605	10.8411
241.498	15.9934
244.39	17.4684
247.283	17.7222
250.176	18.5112
253.068	19.2906
255.961	17.9693
258.854	18.4355
261.746	18.1091
264.639	17.3498
267.532	16.0345
270.425	14.7737
273.317	12.7445
276.21	7.41956
279.103	7.9776
281.995	4.58002
284.888	4.2746
287.781	5.03052
290.673	4.42847
293.566	4.2702
296.459	8.05841
299.351	4.93011
302.244	2.52545
305.137	4.16351
308.03	4.83221
310.922	4.9079
313.815	5.70532
316.708	6.14423
319.6	9.46948
322.493	6.11932
325.386	6.30383
328.279	8.89294
331.171	6.58331
334.064	4.00079
336.957	3.73877
339.849	2.6308
342.742	1.4093
345.635	3.00977
348.527	0.882813
351.42	1.09143
354.313	0.172729
357.205	4.26398
360.098	1.77753
362.991	0.927307
365.884	1.27472
368.776	1.28619
371.669	1.84436
374.562	0.008545
377.454	0.121338
380.347	0.026306
383.24	0.095703
386.132	1.797
389.025	0.460938
391.918	2.63074
394.81	1.39539
397.703	5.14069
400.596	6.08777
403.489	4.26044
406.381	6.61133
409.274	7.83325
412.167	9.40955
415.059	7.25726
417.952	13.0036
420.845	9.04224
423.738	11.7142
426.63	12.9477
429.523	9.89996
432.416	6.99609
435.308	8.01331
438.201	8.15839
441.094	6.92615
443.986	7.02478
446.879	7.35431
449.772	5.35358
452.665	7.03125
455.557	6.08612
458.45	6.64685
461.343	7.49634
464.235	4.99158
467.128	3.4129
470.021	8.39056
472.913	9.63141
475.806	11.1414
478.699	10.3805
481.592	13.2005
484.484	12.04
487.377	20.1165
490.27	22.2408
493.162	31.4517
496.055	34.7597
498.948	38.9496
501.841	43.874
504.733	48.0532
507.626	50.681
510.519	47.0078
513.411	46.6576
516.304	41.8263
519.197	38.5009
522.089	34.679
524.982	30.4089
527.875	30.1639
530.768	23.9705
533.66	21.7993
536.553	18.6565
539.446	14.2454
542.338	14.0878
545.231	9.63818
548.124	7.31317
551.016	6.82275
553.909	5.89911
556.802	2.9209
559.694	0.447632
562.587	1.91827
565.48	3.03565
568.373	1.70154
571.265	1.2757
574.158	0.712036
577.051	1.9668
579.943	0.608398
582.836	0.619324
585.729	3.30078
588.621	2.97351
591.514	7.58429
594.407	4.59369
597.299	4.71478
600.192	4.34009
603.085	4.30536
605.978	4.30908
608.87	2.70929
611.763	4.18951
614.656	3.77271
617.548	3.54297
620.441	3.39459
623.334	2.60077
626.226	9.61145
629.119	4.97858
632.012	5.5661
634.905	3.07916
637.797	1.15924
640.69	0.918091
643.583	2.35492
646.475	3.40747
649.368	2.59552
652.261	0.041687
655.154	2.53461
658.046	2.27136
660.939	2.10803
663.832	1.04419
666.724	1.45123
669.617	3.06482
672.51	2.55798
675.402	2.57703
678.295	1.95441
681.188	1.60907
684.081	2.46118
686.973	3.79181
689.866	5.80518
692.759	5.50873
695.651	3.69696
698.544	5.32422
701.437	5.87512
704.329	4.3573
707.222	8.15051
710.115	6.25769
713.008	6.90509
715.9	7.50543
718.793	5.69775
721.686	3.96503
724.578	2.97412
727.471	1.07251
730.364	2.66065
733.256	1.56616
736.149	2.69305
739.042	4.30151
741.934	5.02356
744.827	2.26135
747.72	1.80035
750.613	6.30408
753.505	4.04907
756.398	1.11176
759.291	3.16852
762.183	1.51794
765.076	3.20978
767.969	2.44324
770.861	1.86884
773.754	3.95929
776.647	3.24622
779.54	3.13678
782.432	1.91254
785.325	0.595703
788.218	0.88147
791.11	1.43439
794.003	0.549988
796.896	0.908752
799.788	0.300293
802.681	1.82471
805.574	1.80512
808.467	2.72284
811.359	0.450256
814.252	0.151306
817.145	3.12237
820.037	4.26398
822.93	1.93805
825.823	3.68933
828.716	4.65607
831.608	5.9118
834.501	7.38312
837.394	4.0354
840.286	4.28735
843.179	5.81073
846.072	5.75952
848.964	4.41028
851.857	5.15942
854.75	2.43958
857.643	3.74866
860.535	7.44604
863.428	3.57312
866.321	1.11499
869.213	3.71289
872.106	4.00915
874.999	2.65063
877.891	1.01379
880.784	0.95105
883.677	3.31409
886.569	0.621704
889.462	0.573364
892.355	4.21509
895.248	2.96948
898.14	1.15356
901.033	0.00293
903.926	0.332031
906.818	0.89563
909.711	1.89636
912.604	2.44177
915.496	0.895508
918.389	0.602905
921.282	0.114258
924.175	0.098145
927.067	5.48706
929.96	3.94678
932.853	4.57117
935.745	2.84619
938.638	1.05286
941.531	3.43457
944.423	2.96643
947.316	2.36353
950.209	2.39404
953.102	0.456177
955.994	5.18189
958.887	3.11853
961.78	5.83215
964.672	5.72949
967.565	6.91516
970.458	6.59216
973.351	9.16211
976.243	10.3798
979.136	10.428
982.029	11.8842
984.921	13.5737
987.814	16.6932
990.707	20.2561
993.599	23.9517
996.492	27.0466
999.385	24.6519
1002.28	20.5686
1005.17	20.1846
1008.06	18.5338
1010.96	16.2176
1013.85	12.1156
1016.74	11.3962
1019.63	7.26611
1022.53	10.03
1025.42	4.92517
1028.31	4.2904
1031.2	5.39368
1034.1	1.77344
1036.99	2.38794
1039.88	0.749512
1042.78	1.12158
1045.67	0.82312
1048.56	0.575684
1051.45	0.023315
1054.35	1.24902
1057.24	2.16321
1060.13	1.4823
1063.02	2.80774
1065.92	2.05762
1068.81	1.94043
1071.7	1.90198
1074.6	3.59021
1077.49	5.17761
1080.38	4.81079
1083.27	5.41162
1086.17	6.01721
1089.06	8.60632
1091.95	6.75232
1094.84	7.64111
1097.74	11.4719
1100.63	8.62341
1103.52	7.24829
1106.41	5.72412
1109.31	8.17883
1112.2	6.573
1115.09	5.69238
1117.98	1.91687
1120.88	3.58179
1123.77	5.14746
1126.66	3.79932
1129.56	0.133179
1132.45	3.03162
1135.34	6.67358
1138.23	0.932007
1141.13	3.86426
1144.02	1.71558
1146.91	3.67017
1149.81	3.91248
1152.7	6.33008
1155.59	6.58569
1158.48	8.07678
1161.38	6.39502
1164.27	6.57935
1167.16	11.4204
1170.05	6.52734
1172.95	8.48901
1175.84	11.4484
1178.73	10.5631
1181.62	9.87765
1184.52	10.0443
1187.41	10.3414
1190.3	9.05679
1193.2	10.0864
1196.09	8.14966
1198.98	8.01379
1201.87	6.34216
1204.77	1.11719
1207.66	0.805786
1210.55	4.69482
1213.44	0.283569
1216.34	1.88245
1219.23	0.158081
1222.12	1.69971
1225.02	3.52832
1227.91	5.4779
1230.8	5.70764
1233.69	11.2382
1236.59	20.2749
1239.48	21.108
1242.37	22.4126
1245.26	24.5819
1248.16	27.1804
1251.05	26.1425
1253.94	25.2601
1256.84	26.1275
1259.73	24.0436
1262.62	23.3191
1265.51	21.3241
1268.41	20.6127
1271.3	18.9713
1274.19	13.1573
1277.08	14.0844
1279.98	7.79419
1282.87	3.41797
1285.76	0.750977
