Measurement: Raman, 780 nm, unoriented, Raman Data Processed
Mineral: Ludlamite
Rruff sample: R090071
Ideal chemistry: Fe^2+^_3_(PO_4_)_2_4H_2_O
Locality: Cigana Mine (ex-Jocão Mine), Galiléia, Minas Gerais  Brazil
Source: Royal Ontario Museum
Description: Groups of colorless tabular crystals on reddish-brown reddingite R090069, associated with pink hureaulite R090070.
Raman shift (cm-1)	intensity
112.558	0
115.933	2.43247
119.308	5.648
122.683	28.3783
126.057	34.5278
129.432	47.1974
132.807	53.7325
136.182	72.4046
139.557	70.7263
142.931	46.0492
146.306	18.4441
149.681	3.16745
153.056	6.72048
156.431	11.5124
159.806	18.6519
163.18	25.5471
166.555	28.4358
169.93	24.8104
173.305	10.6014
176.68	10.0999
180.054	9.83761
183.429	11.9666
186.804	30.2419
190.179	34.3473
193.554	46.9288
196.929	46.6591
200.303	37.7312
203.678	26.7312
207.053	13.6202
210.428	5.44161
213.803	2.45533
217.178	2.16084
220.552	2.60243
223.927	1.09264
227.302	2.30686
230.677	4.03517
234.052	5.41198
237.426	6.87306
240.801	8.59331
244.176	10.7879
247.551	3.25729
250.926	6.4348
254.3	10.5842
257.675	15.1152
261.05	10.539
264.425	11.343
267.8	19.1451
271.175	16.7386
274.549	13.7502
277.924	13.1075
281.299	14.0628
284.674	13.207
288.049	9.29505
291.423	8.70295
294.798	6.9791
298.173	8.42643
301.548	5.10439
304.923	5.92016
308.298	5.08498
311.672	2.62641
315.047	3.87358
318.422	1.66582
321.797	3.65395
325.172	0.021463
328.546	3.13977
331.921	2.07015
335.296	5.39685
338.671	2.00681
342.046	7.69355
345.421	7.01734
348.795	3.55971
352.17	8.41402
355.545	10.2719
358.92	9.27263
362.295	7.22437
365.669	6.58278
369.044	8.57847
372.419	5.94785
375.794	2.31806
379.169	9.91791
382.543	1.32087
385.918	4.4577
389.293	3.95639
392.668	6.56555
396.043	4.13351
399.418	2.70156
402.792	1.44835
406.167	0.288694
409.542	3.6103
412.917	0.42441
416.292	1.54453
419.666	2.5047
423.041	1.43988
426.416	5.19805
429.791	4.25109
433.166	5.61661
436.541	5.27123
439.915	12.2185
443.29	11.0342
446.665	17.0718
450.04	19.9279
453.415	24.8626
456.789	20.8439
460.164	19.3979
463.539	18.4303
466.914	10.3699
470.289	9.50829
473.663	9.63514
477.038	9.40501
480.413	10.3
483.788	14.5241
487.163	15.4414
490.538	16.3995
493.912	14.2161
497.287	8.28129
500.662	9.63951
504.037	0.612093
507.412	1.22207
510.786	0.233587
514.161	1.37056
517.536	2.83512
520.911	2.03856
524.286	5.27507
527.661	8.11956
531.035	11.6737
534.41	10.8984
537.785	14.4831
541.16	17.5786
544.535	20.7934
547.909	19.4893
551.284	22.2884
554.659	19.1254
558.034	20.8628
561.409	12.7489
564.784	11.9547
568.158	9.23221
571.533	8.52135
574.908	5.06365
578.283	2.87107
581.658	3.37919
585.033	3.99398
588.407	8.21213
591.782	10.3589
595.157	9.3732
598.532	4.61652
601.907	4.9066
605.281	2.04582
608.656	2.13996
612.031	5.69087
615.406	0.877932
618.781	0.613201
622.155	0.384228
625.53	1.99524
628.905	1.52204
632.28	3.23098
635.655	1.2396
639.029	2.17278
642.404	6.25424
645.779	1.46178
649.154	3.74597
652.529	5.71945
655.904	2.30459
659.278	4.99472
662.653	0.894962
666.028	8.31189
669.403	6.94313
672.778	4.00628
676.153	4.40205
679.527	4.3925
682.902	3.8268
686.277	0.961581
689.652	0.023633
693.027	5.61678
696.401	6.65482
699.776	3.69297
703.151	0.702047
706.526	4.66236
709.901	2.15988
713.275	4.0113
716.65	3.34272
720.025	3.48787
723.4	5.41096
726.775	4.41624
730.15	6.2505
733.524	3.39911
736.899	6.02127
740.274	4.75719
743.649	2.91283
747.024	3.06326
750.399	4.81174
753.773	3.58245
757.148	3.73325
760.523	0.788689
763.898	4.27136
767.273	5.73315
770.647	3.08985
774.022	2.04539
777.397	3.61334
780.772	4.37772
784.147	5.00698
787.521	1.75948
790.896	3.40814
794.271	0.12763
797.646	2.93934
801.021	4.12735
804.396	1.57735
807.77	3.51439
811.145	1.68308
814.52	3.63589
817.895	5.27962
821.27	3.10224
824.644	3.94061
828.019	3.76141
831.394	4.79478
834.769	2.53322
838.144	5.42474
841.519	0.975735
844.893	0.610861
848.268	3.99414
851.643	2.79972
855.018	0.387619
858.393	3.26139
861.767	1.72292
865.142	2.17037
868.517	3.54121
871.892	0.568329
875.267	2.91186
878.641	1.81039
882.016	1.24038
885.391	0.34392
888.766	3.227
892.141	0.824879
895.516	3.07575
898.89	3.4651
902.265	5.10974
905.64	6.92955
909.015	6.03492
912.39	6.63942
915.764	9.3391
919.139	13.9462
922.514	16.9827
925.889	21.5414
929.264	32.455
932.639	49.4834
936.013	82.9193
939.388	116.044
942.763	157.312
946.138	165.361
949.513	143.615
952.888	90.0895
956.262	54.4868
959.637	37.4672
963.012	22.3967
966.387	15.8668
969.761	10.8719
973.136	12.9465
976.511	11.8591
979.886	7.94986
983.261	9.59345
986.636	9.17419
990.01	2.06901
993.385	7.35612
996.76	3.56989
1000.13	4.26907
1003.51	0.569653
1006.88	0.148804
1010.26	0.664516
1013.63	1.51082
1017.01	1.03096
1020.38	2.8322
1023.76	6.27849
1027.13	10.2892
1030.51	15.0104
1033.88	17.5129
1037.26	17.8945
1040.63	24.0683
1044.01	21.2166
1047.38	18.7504
1050.76	9.30943
1054.13	9.40683
1057.51	7.18193
1060.88	8.17397
1064.26	11.4873
1067.63	9.54488
1071.01	5.45468
1074.38	5.70526
1077.76	4.40605
1081.13	4.76846
1084.51	4.83812
1087.88	2.55346
1091.26	2.8941
1094.63	2.18792
1098.01	2.63682
1101.38	1.40993
1104.75	2.13005
1108.13	1.04399
1111.5	1.83121
1114.88	1.13698
1118.25	1.39989
1121.63	5.79752
1125	3.03411
1128.38	1.2649
1131.75	3.4764
1135.13	0.661537
1138.5	6.38886
1141.88	2.15408
1145.25	3.21838
1148.63	4.58969
1152	2.689
1155.38	6.37823
1158.75	3.83123
1162.13	5.97071
1165.5	3.33144
1168.88	5.3813
1172.25	6.66491
1175.62	5.0952
1179	8.58948
1182.38	4.82293
1185.75	0.125767
1189.12	5.84049
1192.5	5.33597
1195.87	4.35259
1199.25	4.72232
1202.62	9.26043
1206	5.06247
1209.37	4.58049
1212.75	3.51987
1216.12	5.16153
1219.5	5.2088
1222.87	4.00933
1226.25	4.69442
1229.62	7.72941
1233	1.58274
1236.37	3.79042
1239.75	3.50971
1243.12	7.90247
1246.5	4.24061
1249.87	3.56236
1253.25	6.16229
1256.62	1.10039
1260	3.8064
1263.37	6.89192
1266.74	1.33099
1270.12	2.40748
1273.49	3.17338
1276.87	2.31907
1280.24	5.24177
1283.62	0.030851
