Measurement: Raman, 532 nm, unoriented, Raman Data Processed
Mineral: Ludlamite
Rruff sample: R060485
Ideal chemistry: Fe^2+^_3_(PO_4_)_2_4H_2_O
Locality: Blackbird District, Lehmi County, Idaho, USA
Source: Michael Scott
Description: Green tabular crystals associated with siderite, pyrite and quartz
Measured chemistry: Fe^2+^_3.00_(P_1.00_O_4_)_2_Â·4H_2_O
Raman shift (cm-1)	intensity
206.2	0
209.093	6.86487
211.986	6.59781
214.878	4.37118
217.771	0.992584
220.664	0.107391
223.556	1.77228
226.449	0.279266
229.342	1.3735
232.234	3.08835
235.127	5.49698
238.02	5.21652
240.913	3.84949
243.805	3.76721
246.698	4.35815
249.591	6.20883
252.483	8.66687
255.376	12.1711
258.269	16.3642
261.161	17.3035
264.054	17.5929
266.947	20.3453
269.84	23.4588
272.732	21.9244
275.625	13.1133
278.518	13.8664
281.41	17.6084
284.303	23.9596
287.196	28.6563
290.089	24.6044
292.981	17.0418
295.874	17.0129
298.767	19.5096
301.659	23.0272
304.552	24.4607
307.445	20.7931
310.337	16.5396
313.23	12.2928
316.123	9.3287
319.015	8.23712
321.908	5.23816
324.801	5.35608
327.694	2.95438
330.586	2.97656
333.479	1.80725
336.372	6.43747
339.264	8.89285
342.157	5.86725
345.05	6.27792
347.942	5.59644
350.835	1.47174
353.728	4.57233
356.621	4.57202
359.513	3.25473
362.406	0.963776
365.299	2.81244
368.191	1.22073
371.084	1.84033
373.977	0.906433
376.87	1.36881
379.762	1.2594
382.655	1.5574
385.548	0.777954
388.44	0.283417
391.333	1.02008
394.226	1.888
397.118	0.391663
400.011	2.10931
402.904	0.890198
405.796	0.704224
408.689	0.816071
411.582	1.03961
414.475	1.10489
417.367	1.18063
420.26	0.251587
423.153	0.492737
426.045	0.254517
428.938	2.78781
431.831	2.84656
434.724	3.79349
437.616	2.94251
440.509	4.48624
443.402	7.47913
446.294	8.52512
449.187	15.855
452.08	20.9632
454.972	30.0143
457.865	42.9311
460.758	51.3711
463.651	48.7363
466.543	37.0508
469.436	21.4042
472.329	14.1075
475.221	7.16177
478.114	5.68414
481.007	5.59515
483.899	6.65207
486.792	6.02805
489.685	8.61371
492.577	11.3831
495.47	15.9657
498.363	16.7845
501.256	14.3885
504.148	9.61276
507.041	6.24435
509.934	3.08835
512.826	0.744781
515.719	1.4397
518.612	0.373779
521.505	0.390564
524.397	3.51004
527.29	8.03445
530.183	7.60382
533.075	9.44867
535.968	9.42963
538.861	7.69452
541.753	9.4823
544.646	16.9688
547.539	24.2094
550.432	29.8626
553.324	33.2293
556.217	36.0914
559.11	42.3348
562.002	48.9237
564.895	44.5395
567.788	34.5862
570.68	24.2572
573.573	13.6583
576.466	9.23203
579.359	6.51981
582.251	3.38254
585.144	2.14123
588.037	2.97586
590.929	2.6152
593.822	2.45831
596.715	3.56961
599.607	3.37924
602.5	0.772858
605.393	1.99902
608.285	0.385193
611.178	0.059998
614.071	0.095459
616.964	0.133575
619.856	0.592896
622.749	1.06409
625.642	0.536438
628.534	0.935333
631.427	2.98309
634.32	4.56091
637.212	4.17752
640.105	5.06036
642.998	4.63943
645.891	4.72705
648.783	4.43896
651.676	2.96295
654.569	5.14465
657.461	5.43454
660.354	5.28201
663.247	5.34195
666.139	1.34763
669.032	3.33966
671.925	0.670502
674.818	1.2691
677.71	1.48544
680.603	2.01758
683.496	2.61493
686.388	1.40512
689.281	1.73059
692.174	1.68585
695.067	2.21646
697.959	3.50635
700.852	1.8349
703.745	0.192932
706.637	0.518768
709.53	1.05582
712.423	0.450836
715.315	0.654755
718.208	0.856934
721.101	0.746246
723.994	0.01181
726.886	0.808044
729.779	1.73276
732.672	1.87543
735.564	2.43619
738.457	4.97354
741.35	0.815399
744.242	4.30408
747.135	4.03449
750.028	3.80069
752.92	4.00119
755.813	2.10782
758.706	2.77826
761.599	1.24582
764.491	5.0592
767.384	2.50507
770.277	4.07065
773.169	3.35452
776.062	0.673737
778.955	2.62805
781.847	2.62198
784.74	1.90308
787.633	2.2645
790.526	0.614532
793.418	1.71033
796.311	1.65543
799.204	1.47656
802.096	1.54349
804.989	1.71106
807.882	1.34927
810.774	2.74875
813.667	1.53073
816.56	2.7951
819.453	3.16275
822.345	1.98087
825.238	3.31894
828.131	3.36786
831.023	2.13092
833.916	3.83707
836.809	4.17239
839.702	4.18219
842.594	4.03912
845.487	2.10977
848.38	1.40332
851.272	3.74381
854.165	2.15912
857.058	2.63669
859.95	3.29132
862.843	5.03665
865.736	2.29523
868.629	1.61694
871.521	2.87387
874.414	2.28308
877.307	3.07251
880.199	0.4039
883.092	0.053223
885.985	1.65183
888.877	0.542206
891.77	0.06839
894.663	0.274963
897.556	0.1203
900.448	1.10171
903.341	0.772522
906.234	2.94354
909.126	3.1304
912.019	4.9931
914.912	5.38095
917.804	6.91907
920.697	7.87476
923.59	5.91223
926.482	7.58276
929.375	10.8445
932.268	12.7815
935.161	18.1328
938.053	28.0749
940.946	44.2584
943.839	71.691
946.731	132.473
949.624	220.105
952.517	236.216
955.409	149.222
958.302	84.8692
961.195	53.1761
964.088	34.6942
966.98	28.6869
969.873	21.0933
972.766	18.7819
975.658	14.0782
978.551	11.0108
981.444	7.82907
984.337	5.34094
987.229	4.1203
990.122	2.1683
993.015	2.37671
995.907	1.26392
998.8	0.035797
1001.69	1.4473
1004.59	0.763519
1007.48	1.40186
1010.37	1.08536
1013.26	1.28839
1016.16	0.78833
1019.05	2.1478
1021.94	3.71756
1024.83	5.49277
1027.73	3.16965
1030.62	5.39569
1033.51	3.16803
1036.4	3.91333
1039.3	2.40427
1042.19	1.67413
1045.08	2.10849
1047.98	1.01248
1050.87	5.05756
1053.76	7.08649
1056.65	7.04196
1059.55	7.95816
1062.44	9.46887
1065.33	12.3409
1068.22	13.2582
1071.12	16.2186
1074.01	13.8658
1076.9	11.2605
1079.8	9.70166
1082.69	4.73892
1085.58	3.76804
1088.47	2.21802
1091.37	2.40189
1094.26	3.37628
1097.15	2.08533
1100.04	0.843506
1102.94	1.54974
1105.83	1.83514
1108.72	0.553741
1111.62	3.01385
1114.51	4.39398
1117.4	1.14923
1120.29	2.05985
1123.19	2.43774
1126.08	0.567688
1128.97	1.23901
1131.86	0.242737
1134.76	1.42026
1137.65	1.92242
1140.54	0.325256
1143.43	0.808685
1146.33	0.551727
1149.22	1.20087
1152.11	1.2767
1155.01	1.67554
1157.9	0.711975
1160.79	1.69464
1163.68	1.5415
1166.58	2.23801
1169.47	0.959198
1172.36	0.757538
1175.26	1.71951
1178.15	2.06299
1181.04	3.09927
1183.93	2.87494
1186.83	2.84042
1189.72	2.37076
1192.61	3.40659
1195.5	2.75214
1198.4	1.83713
1201.29	2.20987
1204.18	2.34155
1207.07	3.789
1209.97	4.06992
1212.86	2.51569
1215.75	2.31101
1218.64	0.054962
1221.54	2.4931
1224.43	2.89777
1227.32	1.80374
1230.22	1.61523
1233.11	0.968201
1236	1.17822
1238.89	0.720276
1241.79	0.463684
1244.68	1.34134
1247.57	2.10965
1250.46	1.3396
1253.36	2.23355
1256.25	0.496033
1259.14	4.83652
1262.04	3.73538
1264.93	2.35599
1267.82	3.35828
1270.71	2.37473
1273.61	2.05139
1276.5	1.54913
1279.39	1.00601
1282.29	0.852814
1285.18	1.09378
1288.07	1.68423
1290.96	1.27753
1293.86	1.53125
1296.75	1.88043
1299.64	1.94611
1302.53	0.112305
