Measurement: Raman, 532 nm, unoriented, Raman Data Processed
Mineral: Ludwigite
Rruff sample: R060844
Ideal chemistry: Mg_2_Fe^3+^O_2_(BO_3_)
Locality: Crestmore, California, USA
Source: Bob Jenkins
Description: Black elongated prismatic crystals
Raman shift (cm-1)	intensity
205.893	0
208.786	0.708984
211.679	37.4529
214.571	22.6783
217.464	22.1337
220.357	43.5803
223.25	93.5406
226.142	129.223
229.035	141.126
231.928	206.241
234.82	162.839
237.713	117.091
240.606	106.538
243.498	80.9881
246.391	24.9654
249.284	38.4647
252.177	49.0329
255.069	7.02454
257.962	32.7562
260.855	8.08166
263.747	3.57446
266.64	59.4177
269.533	53.3551
272.425	27.9698
275.318	33.4915
278.211	27.3781
281.103	44.1177
283.996	55.6561
286.889	25.4825
289.782	16.7979
292.674	22.9694
295.567	28.4011
298.46	19.8129
301.352	55.8713
304.245	18.3618
307.138	34.7884
310.031	33.2024
312.923	55.0668
315.816	43.8337
318.709	21.1388
321.601	28.5408
324.494	22.9984
327.387	18.9424
330.279	18.9346
333.172	45.5363
336.065	68.593
338.957	80.6877
341.85	92.8399
344.743	140.013
347.635	143.413
350.528	233.47
353.421	248.154
356.314	284.276
359.206	251.564
362.099	259.562
364.992	195.621
367.884	173.019
370.777	146.624
373.67	122.583
376.562	139.851
379.455	142.488
382.348	109.078
385.241	158.04
388.133	162.663
391.026	92.4785
393.919	45.6904
396.811	35.1019
399.704	3.43268
402.597	11.6144
405.49	38.193
408.382	66.9618
411.275	105.887
414.168	149.24
417.06	200.304
419.953	156.296
422.846	117.118
425.738	71.4315
428.631	47.6233
431.524	24.4066
434.416	44.7073
437.309	18.7082
440.202	19.3837
443.094	10.3095
445.987	26.0552
448.88	14.3331
451.773	8.70715
454.665	20.2119
457.558	8.22644
460.451	30.5325
463.343	35.9836
466.236	25.4592
469.129	58.437
472.022	48.6134
474.914	49.5431
477.807	52.7082
480.7	56.6166
483.592	23.9941
486.485	28.7704
489.378	46.9448
492.27	25.7112
495.163	33.545
498.056	35.5847
500.949	19.6084
503.841	41.1675
506.734	39.0161
509.627	40.3143
512.519	11.6788
515.412	15.8704
518.305	0.600342
521.197	20.8389
524.09	13.3944
526.983	12.3157
529.875	7.64343
532.768	13.5114
535.661	11.4418
538.554	9.68787
541.446	51.1862
544.339	23.241
547.232	34.0487
550.124	42.9058
553.017	23.0391
555.91	35.376
558.802	45.1517
561.695	40.8682
564.588	52.9532
567.481	51.8352
570.373	57.1683
573.266	65.7279
576.159	57.3414
579.051	48.309
581.944	70.2367
584.837	39.1946
587.729	53.6311
590.622	44.0814
593.515	32.6205
596.408	20.7178
599.3	36.048
602.193	24.1069
605.086	14.6793
607.978	10.4579
610.871	51.7062
613.764	9.9884
616.656	12.0641
619.549	38.7396
622.442	12.967
625.335	34.9034
628.227	63.5602
631.12	43.5642
634.013	78.0928
636.905	101.159
639.798	127.079
642.691	136.498
645.583	149.578
648.476	177.865
651.369	206.195
654.261	239.861
657.154	284.683
660.047	336.73
662.94	376.943
665.832	447.268
668.725	490.719
671.618	548.403
674.51	530.148
677.403	514.494
680.296	482.293
683.188	404.05
686.081	287.713
688.974	229.113
691.866	156.065
694.759	119.563
697.652	95.9874
700.545	62.4548
703.437	39.5766
706.33	1.91406
709.223	1.45245
712.115	3.94513
715.008	27.6282
717.901	5.84985
720.793	11.225
723.686	21.613
726.579	10.0117
729.472	2.18787
732.364	13.9313
735.257	2.80756
738.15	4.96063
741.042	3.41608
743.935	6.22473
746.828	8.77539
749.721	26.9332
752.613	1.7829
755.506	22.9797
758.399	5.38306
761.291	27.342
764.184	33.8407
767.077	18.2069
769.969	37.4976
772.862	48.0414
775.755	29.941
778.648	24.9269
781.54	14.5358
784.433	23.5129
787.326	10.2179
790.218	43.4435
793.111	1.40234
796.004	27.9972
798.896	17.1385
801.789	24.0898
804.682	20.2589
807.574	16.6779
810.467	10.2302
813.36	8.11273
816.253	32.8515
819.145	18.2699
822.038	32.6792
824.931	20.826
827.823	53.7619
830.716	49.5836
833.609	33.2833
836.501	38.9776
839.394	36.3182
842.287	45.7362
845.179	15.0762
848.072	30.8828
850.965	19.5879
853.857	49.0029
856.75	16.9926
859.643	24.7954
862.536	22.0696
865.428	24.9681
868.321	20.6906
871.214	36.311
874.106	21.9663
876.999	4.0188
879.892	34.7717
882.784	31.3829
885.677	22.638
888.57	30.0546
891.463	12.6566
894.355	11.9031
897.248	1.50757
900.141	5.27154
903.033	13.27
905.926	8.70349
908.819	11.527
911.712	29.3644
914.604	22.168
917.497	1.39459
920.39	4.78259
923.282	21.4166
926.175	21.7822
929.068	23.8563
931.96	12.442
934.853	18.3931
937.746	19.5725
940.639	59.8867
943.531	49.7269
946.424	63.1658
949.317	51.57
952.209	94.7392
955.102	134.061
957.995	96.4497
960.887	85.1782
963.78	42.1307
966.673	9.76013
969.566	20.5992
972.458	3.20343
975.351	11.2173
978.244	3.96765
981.136	31.7405
984.029	2.27179
986.922	8.14123
989.814	32.8589
992.707	10.1421
995.6	15.0087
998.492	8.7439
1001.38	35.0551
1004.28	22.1168
1007.17	17.8414
1010.06	4.23144
1012.96	29.6865
1015.85	28.6667
1018.74	26.4073
1021.63	5.52972
1024.53	2.40655
1027.42	36.8711
1030.31	21.2213
1033.2	33.1095
1036.1	51.5679
1038.99	10.7523
1041.88	26.3564
1044.78	28.0875
1047.67	9.06775
1050.56	18.4701
1053.45	37.7982
1056.35	39.4112
1059.24	30.3323
1062.13	14.3066
1065.03	31.3047
1067.92	17.5871
1070.81	37.8073
1073.7	22.9371
1076.6	34.4576
1079.49	35.0143
1082.38	0.225769
1085.27	6.11114
1088.17	9.33081
1091.06	44.073
1093.95	32.7953
1096.84	11.0471
1099.74	17.6445
1102.63	8.31702
1105.52	46.715
1108.41	29.2352
1111.31	18.9467
1114.2	38.9069
1117.09	43.2225
1119.99	0.503052
1122.88	38.8967
1125.77	23.5267
1128.66	40.779
1131.56	53.8371
1134.45	38.0171
1137.34	30.7008
1140.23	0.979919
1143.13	24.9032
1146.02	16.2929
1148.91	0.027405
1151.81	4.37994
1154.7	12.6571
1157.59	16.0671
1160.48	44.6325
1163.38	9.70947
1166.27	16.8086
1169.16	3.98999
1172.05	2.63672
1174.95	41.3071
1177.84	48.7138
1180.73	54.3545
1183.62	29.5259
1186.52	69.6807
1189.41	61.4711
1192.3	53.4196
1195.2	34.3989
1198.09	89.925
1200.98	58.3521
1203.87	69.1009
1206.77	22.8507
1209.66	51.3669
1212.55	13.4766
1215.44	59.6897
1218.34	41.6904
1221.23	42.4426
1224.12	44.4313
1227.02	47.7878
1229.91	24.5953
1232.8	30.683
1235.69	13.402
1238.59	23.3666
1241.48	25.4053
1244.37	3.34228
1247.26	15.8884
