Measurement: Raman, 532 nm, unoriented, Raman Data Processed
Mineral: Luzonite
Rruff sample: R060390
Ideal chemistry: Cu_3_AsS^2-^_4_
Locality: Bern-Shan Pit, Chinkuashi mine, Taipei, Taiwan, Republic of China
Source: Michael Scott
Description: Black coarse massive with two directions of obvious cleavage
Measured chemistry: Cu_3.01_(As_0.85_Sb_0.15_)_Î£=1.00_S_4_
Raman shift (cm-1)	intensity
129.544	0
132.918	3.43515
136.293	0.005826
139.668	0.199182
143.043	4.75246
146.418	2.65424
149.792	6.74924
153.167	8.72627
156.542	6.29797
159.917	7.25609
163.292	7.89295
166.667	8.58351
170.041	8.69009
173.416	8.74154
176.791	6.40251
180.166	7.41193
183.541	4.56367
186.916	12.5227
190.29	8.19115
193.665	3.84663
197.04	3.99685
200.415	4.63239
203.79	4.72521
207.164	0.158651
210.539	2.88373
213.914	0.728575
217.289	0.339994
220.664	0.753838
224.038	0.794674
227.413	0.656322
230.788	2.12307
234.163	0.316093
237.538	1.50798
240.913	5.02437
244.287	6.0032
247.662	4.50389
251.037	8.15901
254.412	14.2731
257.787	14.9065
261.161	20.9615
264.536	25.8373
267.911	27.2009
271.286	34.7171
274.661	33.1726
278.036	28.879
281.41	16.9855
284.785	8.4408
288.16	4.90338
291.535	2.46051
294.91	2.07194
298.284	3.14571
301.659	6.75359
305.034	13.7356
308.409	23.1535
311.784	33.4691
315.159	46.9134
318.533	64.7129
321.908	75.7931
325.283	65.0633
328.658	36.6902
332.033	13.2631
335.408	3.55487
338.782	1.84655
342.157	1.92018
345.532	5.44366
348.907	8.91732
352.281	8.67863
355.656	10.595
359.031	12.799
362.406	12.5117
365.781	14.5926
369.156	10.3551
372.53	8.44898
375.905	5.95496
379.28	3.38456
382.655	1.2937
386.03	0.981409
389.404	1.34386
392.779	0.449129
396.154	0.935863
399.529	1.84506
402.904	2.75847
406.279	1.59256
409.653	1.41458
413.028	3.26816
416.403	0.476217
419.778	2.11459
423.153	0.786011
426.527	1.41608
429.902	1.22466
433.277	3.85039
436.652	4.92382
440.027	5.45153
443.402	1.92961
446.776	2.27486
450.151	1.92754
453.526	3.28421
456.901	4.14541
460.276	3.556
463.651	6.5097
467.025	2.73801
470.4	4.35771
473.775	1.36017
477.15	0.589974
480.525	2.15552
483.899	4.3727
487.274	1.01609
490.649	3.05268
494.024	2.39693
497.399	2.43397
500.774	1.84509
504.148	0.333389
507.523	0.068294
510.898	2.29316
514.273	3.04469
517.648	0.688511
521.022	1.31539
524.397	3.36507
527.772	1.15942
531.147	0.814844
534.522	1.34333
537.896	2.68499
541.271	1.83366
544.646	0.74536
548.021	0.548378
551.396	2.85048
554.771	2.70559
558.145	1.4816
561.52	0.099705
564.895	1.83541
568.27	2.39814
571.645	1.31583
575.019	1.69994
578.394	4.23635
581.769	0.911852
585.144	2.92398
588.519	0.1119
591.894	3.15259
595.268	2.85127
598.643	2.84457
602.018	0.228085
605.393	2.8973
608.768	2.32799
612.142	0.527189
615.517	1.5993
618.892	2.71164
622.267	2.67764
625.642	2.48717
629.016	4.49449
632.391	2.77167
635.766	4.46892
639.141	5.48565
642.516	4.38829
645.891	4.44153
649.265	5.11189
652.64	2.61952
656.015	1.82551
659.39	1.50686
662.765	0.929501
666.139	0.164665
669.514	0.926057
672.889	1.19146
676.264	2.25214
679.639	3.09639
683.014	1.80933
686.388	0.769464
689.763	2.67259
693.138	0.359145
696.513	1.83599
699.888	0.648134
703.263	0.104587
706.637	3.02074
710.012	0.269696
713.387	0.238223
716.762	1.05987
720.136	2.26687
723.511	1.48475
726.886	1.24712
730.261	3.51088
733.636	1.61737
737.011	0.788091
740.385	2.75389
743.76	2.33065
747.135	2.29259
750.51	1.28926
753.885	0.918115
757.26	2.14633
760.634	1.60939
764.009	2.63065
767.384	1.34648
770.759	2.30001
774.134	1.05656
777.508	0.340107
780.883	0.035236
784.258	1.69244
787.633	2.09694
791.008	2.19236
794.383	0.942513
797.757	0.174748
801.132	2.48946
804.507	2.72816
807.882	2.90408
811.257	3.53032
814.631	0.391368
818.006	2.48894
821.381	1.73416
824.756	2.4307
828.131	0.847754
831.505	1.84959
834.88	1.77611
838.255	2.17392
841.63	2.09982
845.005	1.22012
848.38	3.14415
851.754	2.83406
855.129	1.55519
858.504	2.89503
861.879	1.2777
865.254	1.36688
868.629	1.56315
872.003	0.969336
875.378	1.72476
878.753	1.27278
882.128	3.71394
885.503	4.49192
888.877	1.36453
892.252	1.31485
895.627	3.27316
899.002	1.25167
902.377	1.14488
905.751	1.29242
909.126	1.67239
912.501	0.347692
915.876	0.165197
919.251	0.641688
922.625	2.5349
926	0.745773
929.375	1.91939
932.75	0.163478
936.125	1.45223
939.5	1.71108
942.875	2.15184
946.249	1.02599
949.624	0.409932
952.999	2.4455
956.374	2.93908
959.749	3.70514
963.123	3.43702
966.498	3.06415
969.873	2.25015
973.248	1.38018
976.623	3.46943
979.997	2.04804
983.372	1.83258
986.747	2.36106
990.122	1.09652
993.497	1.73866
996.871	0.338249
1000.25	2.9821
1003.62	3.08043
1007	2.92564
1010.37	2.11917
1013.75	2.69522
1017.12	1.04295
1020.5	2.80996
1023.87	0.960668
1027.24	2.83818
1030.62	0.921819
1033.99	2.43148
1037.37	1.66461
1040.74	2.74345
1044.12	1.47381
1047.49	1.72607
1050.87	0.398806
1054.24	1.55778
1057.62	0.482881
1060.99	1.93829
1064.37	1.71896
1067.74	1.85536
1071.12	1.89247
1074.49	2.37391
1077.87	0.023142
1081.24	1.86959
1084.62	0.636879
1087.99	2.07738
1091.37	0.078812
1094.74	2.82425
1098.12	1.81824
1101.49	0.606267
1104.87	0.087796
1108.24	1.0449
1111.62	1.99368
1114.99	1.25086
1118.37	0.21984
1121.74	2.33015
1125.12	2.44209
1128.49	1.61672
1131.86	2.21776
1135.24	1.95196
1138.61	0.723283
1141.99	0.508753
1145.36	2.58191
1148.74	3.39167
1152.11	0.006221
1155.49	2.19524
1158.86	1.26311
1162.24	1.89234
1165.61	2.69432
1168.99	2.63002
1172.36	1.2423
1175.74	2.33376
1179.11	2.39478
1182.49	2.42174
1185.86	1.29531
1189.24	2.69677
1192.61	0.95436
1195.99	1.40277
1199.36	2.745
1202.73	1.70933
1206.11	5.05505
1209.48	2.58434
1212.86	0.161338
1216.23	2.42078
1219.61	2.02884
1222.98	2.34782
1226.36	3.38887
1229.73	1.35299
1233.11	2.10838
1236.48	1.73764
1239.86	2.76614
1243.23	3.21459
1246.61	3.03455
1249.98	0.949224
1253.36	2.35931
1256.73	3.3403
1260.11	1.41488
1263.48	3.51495
1266.86	3.16935
1270.23	0.163164
1273.61	1.70245
1276.98	2.0313
1280.36	0.931181
1283.73	1.06297
1287.11	1.48242
1290.48	2.19453
1293.86	2.21711
1297.23	1.14846
1300.61	2.0387
