Measurement: Raman, 780 nm, unoriented, Raman Data Processed
Mineral: Macfallite
Rruff sample: R060391
Ideal chemistry: Ca_2_Mn^3+^_3_(SiO_4_)(Si_2_O_7_)(OH)_3_
Locality: near Manganese Lake, Copper Harbor, Keweenaw County, Michigan, USA
Source: Michael Scott
Description: Reddish-brown radial aggregate of bladed crystals associated with braunite, quartz, calcite
Raman shift (cm-1)	intensity
111.819	0
115.193	3.52174
118.568	2.75488
121.943	2.17993
125.318	2.62509
128.693	5.85336
132.067	8.81671
135.442	10.7731
138.817	17.6677
142.192	13.8231
145.567	10.6844
148.941	6.79503
152.316	1.38803
155.691	0.497681
159.066	1.49783
162.441	0.094406
165.816	0.714142
169.19	3.82829
172.565	3.78864
175.94	10.1065
179.315	16.3045
182.69	25.8005
186.065	30.4073
189.439	32.868
192.814	35.4197
196.189	37.3128
199.564	29.9943
202.939	29.3627
206.313	25.6014
209.688	24.3115
213.063	27.0276
216.438	25.2413
219.813	27.5643
223.188	24.57
226.562	26.1137
229.937	24.873
233.312	20.8728
236.687	21.1431
240.061	13.6974
243.436	10.3489
246.811	5.98891
250.186	3.14477
253.561	0.774139
256.936	1.33593
260.31	0.768036
263.685	2.96
267.06	3.66912
270.435	4.43076
273.81	3.11707
277.185	8.8792
280.559	12.3873
283.934	14.7093
287.309	9.23997
290.684	8.10703
294.059	8.20988
297.433	5.45343
300.808	2.56064
304.183	2.20139
307.558	2.81827
310.933	1.41753
314.308	4.48133
317.682	7.34933
321.057	7.57906
324.432	10.2975
327.807	15.7049
331.182	18.0301
334.556	23.2015
337.931	25.5041
341.306	29.9698
344.681	34.804
348.056	45.5791
351.43	46.3421
354.805	49.2318
358.18	50.6843
361.555	44.1994
364.93	34.3395
368.305	24.9582
371.679	17.3607
375.054	14.3665
378.429	10.6189
381.804	7.21772
385.179	11.2511
388.553	11.7365
391.928	8.96926
395.303	9.55974
398.678	8.01708
402.053	8.75993
405.427	6.68485
408.802	4.6135
412.177	0.212563
415.552	1.43561
418.927	0.824249
422.301	0.528236
425.676	0.951706
429.051	1.59641
432.426	4.83192
435.801	0.336685
439.176	2.80969
442.55	0.404449
445.925	0.235054
449.3	5.05768
452.675	5.14203
456.05	7.73098
459.425	12.744
462.799	16.3895
466.174	19.5168
469.549	23.5541
472.924	24.8158
476.299	22.6816
479.673	20.2933
483.048	19.535
486.423	12.4352
489.798	8.97118
493.173	3.47462
496.547	6.02557
499.922	7.55349
503.297	10.9469
506.672	11.2527
510.047	10.4736
513.422	15.9636
516.796	16.108
520.171	15.9546
523.546	17.2492
526.921	12.8671
530.296	4.94486
533.67	0.622803
537.045	0.761749
540.42	2.3672
543.795	2.00027
547.17	2.07697
550.544	10.7084
553.919	8.77608
557.294	12.6057
560.669	12.2264
564.044	17.545
567.418	15.3128
570.793	19.6706
574.168	28.0246
577.543	35.2993
580.918	40.5862
584.293	44.9373
587.667	46.2809
591.042	43.7813
594.417	38.7179
597.792	27.4174
601.167	21.7117
604.542	14.2446
607.916	10.7176
611.291	8.37855
614.666	4.78055
618.041	2.60324
621.416	0.526112
624.79	2.53352
628.165	1.52341
631.54	1.11933
634.915	2.15538
638.29	1.31541
641.664	4.31767
645.039	0.813927
648.414	2.89566
651.789	1.73429
655.164	3.74474
658.538	5.24926
661.913	4.30564
665.288	6.92339
668.663	11.5714
672.038	13.3557
675.413	15.6853
678.787	15.3936
682.162	14.7555
685.537	11.9588
688.912	10.2654
692.287	9.30958
695.662	7.51377
699.036	8.25046
702.411	6.73243
705.786	3.47296
709.161	4.04635
712.535	4.24074
715.91	4.24362
719.285	4.62098
722.66	2.83912
726.035	2.70701
729.41	4.41357
732.784	0.931183
736.159	4.05271
739.534	4.81768
742.909	0.763821
746.284	2.16528
749.659	4.16881
753.033	0.47784
756.408	3.37453
759.783	0.125698
763.158	1.12692
766.533	1.76192
769.907	1.24438
773.282	2.36035
776.657	0.658611
780.032	2.89632
783.407	1.8958
786.782	3.5216
790.156	3.4766
793.531	1.35474
796.906	1.99768
800.281	3.05916
803.655	0.365288
807.03	1.13407
810.405	1.03567
813.78	0.668743
817.155	3.36265
820.53	1.82198
823.904	1.07878
827.279	2.69568
830.654	1.3874
834.029	2.26067
837.404	2.62899
840.779	0.034946
844.153	4.03302
847.528	3.85235
850.903	1.58209
854.278	3.31106
857.653	7.35444
861.027	7.0054
864.402	7.21848
867.777	7.9623
871.152	5.96739
874.527	2.88362
877.901	6.27228
881.276	2.10051
884.651	5.77478
888.026	7.57465
891.401	5.3471
894.775	8.21368
898.15	8.23954
901.525	10.8304
904.9	8.50817
908.275	9.87028
911.65	14.39
915.024	15.7155
918.399	14.6879
921.774	19.399
925.149	19.2334
928.524	17.2321
931.899	16.3386
935.273	13.5598
938.648	14.3613
942.023	8.95662
945.398	9.10842
948.773	7.21263
952.147	2.0194
955.522	5.11189
958.897	3.47133
962.272	3.17782
965.647	1.02558
969.021	0.532219
972.396	0.640553
975.771	0.497238
979.146	0.947468
982.521	1.37547
985.895	1.24971
989.27	3.61369
992.645	5.45358
996.02	1.4151
999.395	0.315273
1002.77	2.55951
1006.14	1.56217
1009.52	2.42191
1012.89	3.36335
1016.27	5.94058
1019.64	6.75127
1023.02	5.82466
1026.39	7.19444
1029.77	2.34851
1033.14	2.2529
1036.52	3.63334
1039.89	4.16611
1043.27	1.37048
1046.64	3.72064
1050.02	4.67553
1053.39	4.37826
1056.77	4.38788
1060.14	1.75925
1063.52	2.29557
1066.89	2.15633
1070.27	5.13489
1073.64	3.39996
1077.02	3.93727
1080.39	2.9258
1083.77	1.48104
1087.14	1.51508
1090.52	1.33893
1093.89	3.04869
1097.26	6.36768
1100.64	2.03378
1104.01	0.485371
1107.39	0.79978
1110.76	0.566317
1114.14	2.89791
1117.51	1.00636
1120.89	2.93793
1124.26	0.24474
1127.64	3.07012
1131.01	2.04402
1134.39	2.70464
1137.76	3.71999
1141.14	5.66317
1144.51	1.29197
1147.89	3.66533
1151.26	3.88181
1154.64	3.46673
1158.01	4.75263
1161.39	1.95008
1164.76	4.6967
1168.13	4.17144
1171.51	2.39388
1174.88	3.922
1178.26	0.676542
1181.63	4.68999
1185.01	3.68093
1188.38	3.33392
1191.76	3.97387
1195.13	0.130188
1198.51	4.25059
1201.88	0.892481
1205.26	1.96873
1208.63	3.67168
1212.01	2.14863
1215.38	2.41041
1218.76	2.19394
1222.13	3.43485
1225.51	0.469215
1228.88	2.40351
1232.26	2.69576
1235.63	3.87498
1239.01	4.11155
1242.38	4.12977
1245.76	0.116354
1249.13	3.81726
1252.51	1.77621
1255.88	6.68548
1259.26	2.52716
1262.63	0.33802
1266.01	1.99525
1269.38	3.23347
1272.76	3.7499
1276.13	3.75778
1279.5	1.53257
1282.88	0.02107
