Measurement: Raman, 532 nm, unoriented, Raman Data Processed
Mineral: Mackinawite
Rruff sample: R070302
Ideal chemistry: (Fe,Ni)_1-1.07_S
Locality: Wannaway Prospect, near Kalgoorlie, Western Australia, Australia
Source: James Shigley
Description: Bronze metallic massive, drill core
Raman shift (cm-1)	intensity
133.27	0
136.645	29.6864
140.019	131.79
143.394	10.1579
146.769	51.6435
150.144	37.202
153.519	80.8767
156.894	96.0095
160.268	44.1661
163.643	64.3109
167.018	45.2328
170.393	92.5012
173.768	52.5074
177.143	39.8947
180.517	63.2023
183.892	77.8452
187.267	81.7066
190.642	70.7946
194.017	55.282
197.391	70.3684
200.766	48.674
204.141	64.2728
207.516	36.1428
210.891	37.4237
214.266	17.6063
217.64	32.5284
221.015	33.0352
224.39	15.6797
227.765	6.38095
231.14	9.01471
234.514	0.860229
237.889	10.7631
241.264	24.1
244.639	39.5741
248.014	29.1895
251.388	32.2056
254.763	32.6797
258.138	44.9301
261.513	17.3884
264.888	26.8937
268.263	1.97778
271.637	1.56049
275.012	18.5521
278.387	26.5068
281.762	45.8917
285.137	52.3472
288.512	34.3096
291.886	55.9301
295.261	53.1314
298.636	44.4266
302.011	45.9616
305.386	52.2292
308.76	40.8296
312.135	68.2956
315.51	63.3304
318.885	49.0181
322.26	44.5533
325.635	27.6185
329.009	35.3796
332.384	6.30814
335.759	22.1612
339.134	39.6088
342.509	53.3051
345.883	64.1362
349.258	128.666
352.633	166.649
356.008	224.42
359.383	296.206
362.757	369.814
366.132	405.409
369.507	459.68
372.882	430.869
376.257	389.324
379.632	338.561
383.006	281.055
386.381	216.795
389.756	173.872
393.131	136.77
396.506	109.199
399.88	98.1915
403.255	126.748
406.63	92.6637
410.005	97.2759
413.38	63.7384
416.755	65.0069
420.129	20.6639
423.504	22.9477
426.879	9.52712
430.254	18.2212
433.629	5.52768
437.003	3.37701
440.378	13.8852
443.753	2.36385
447.128	25.5114
450.503	0.133087
453.878	3.07536
457.252	23.101
460.627	9.02947
464.002	42.7483
467.377	39.1184
470.752	30.3244
474.127	27.2817
477.501	41.5601
480.876	55.7174
484.251	41.8568
487.626	22.0189
491.001	48.3802
494.375	25.9916
497.75	38.9506
501.125	39.6423
504.5	26.9873
507.875	43.0728
511.25	61.2237
514.624	41.4627
517.999	13.1782
521.374	33.7391
524.749	29.7074
528.124	11.1417
531.498	19.7974
534.873	29.4052
538.248	24.1146
541.623	27.8733
544.998	30.5936
548.372	31.1064
551.747	26.4614
555.122	24.0506
558.497	15.425
561.872	41.279
565.247	22.2588
568.621	19.2177
571.996	16.2357
575.371	17.3638
578.746	24.1833
582.121	14.1948
585.495	11.441
588.87	31.3465
592.245	22.4224
595.62	29.2486
598.995	27.7259
602.37	34.788
605.744	26.801
609.119	24.6266
612.494	28.4793
615.869	27.8381
619.244	3.02676
622.619	13.1967
625.993	17.8178
629.368	2.45891
632.743	26.4508
636.118	21.1756
639.493	2.25214
642.867	28.688
646.242	27.7656
649.617	15.7993
652.992	19.0136
656.367	22.9236
659.741	10.1691
663.116	15.2021
666.491	21.7649
669.866	13.9026
673.241	16.5735
676.616	32.9971
679.99	56.7014
683.365	39.8187
686.74	32.1129
690.115	18.7512
693.49	5.65974
696.865	27.357
700.239	25.3371
703.614	17.1378
706.989	12.6987
710.364	13.3728
713.739	12.608
717.113	29.0045
720.488	14.1866
723.863	14.857
727.238	2.96376
730.613	4.08653
733.987	33.5134
737.362	1.48244
740.737	45.3438
744.112	12.7961
747.487	27.6184
750.862	40.7994
754.236	20.3959
757.611	34.5415
760.986	15.1814
764.361	12.3734
767.736	36.9612
771.111	41.1383
774.485	5.53709
777.86	2.77803
781.235	8.85107
784.61	12.7082
787.985	23.6444
791.359	16.0694
794.734	17.5044
798.109	6.92786
801.484	24.3021
804.859	39.0476
808.234	34.8939
811.608	3.30702
814.983	6.69683
818.358	7.54649
821.733	10.4627
825.108	23.7025
828.482	22.5968
831.857	4.21484
835.232	24.7795
838.607	31.1485
841.982	32.0741
845.356	21.1634
848.731	25.9537
852.106	24.938
855.481	6.8997
858.856	42.3347
862.231	13.3941
865.605	3.3712
868.98	20.7254
872.355	12.0162
875.73	26.5242
879.105	24.8329
882.48	22.736
885.854	26.7359
889.229	54.7999
892.604	31.9221
895.979	18.2812
899.354	42.0962
902.729	28.7229
906.103	12.8032
909.478	37.0356
912.853	25.5187
916.228	29.5505
919.602	37.2478
922.977	36.639
926.352	37.027
929.727	36.5051
933.102	41.6728
936.477	10.63
939.851	4.86604
943.226	9.32808
946.601	6.1848
949.976	38.0725
953.351	18.1948
956.726	20.2301
960.1	26.76
963.475	30.7159
966.85	25.9911
970.225	32.1168
973.6	8.05165
976.974	13.1706
980.349	8.37311
983.724	4.78864
987.099	18.2455
990.474	14.0256
993.848	45.2479
997.223	28.9447
1000.6	21.1084
1003.97	33.0722
1007.35	3.70552
1010.72	27.7522
1014.1	10.384
1017.47	2.08328
1020.85	15.1353
1024.22	18.7312
1027.6	23.9419
1030.97	20.2224
1034.35	22.2247
1037.72	44.9698
1041.1	25.1609
1044.47	48.3841
1047.85	39.0513
1051.22	34.5212
1054.6	15.4237
1057.97	22.9959
1061.35	31.1726
1064.72	4.56842
1068.09	6.92802
1071.47	19.7288
1074.84	12.6925
1078.22	17.7451
1081.59	6.53661
1084.97	32.1253
1088.34	30.3671
1091.72	38.4712
1095.09	17.1419
1098.47	10.9031
1101.84	20.8003
1105.22	3.34326
1108.59	0.039047
1111.97	30.6015
1115.34	19.6471
1118.72	18.8975
1122.09	11.7892
1125.47	12.8624
1128.84	59.2263
1132.22	23.6195
1135.59	36.798
1138.97	13.1703
1142.34	14.2958
1145.71	2.01534
1149.09	20.0427
1152.46	41.104
1155.84	21.719
1159.21	27.8326
1162.59	20.6617
1165.96	3.91225
1169.34	19.0969
1172.71	32.5541
1176.09	12.1742
1179.46	3.78844
1182.84	5.38031
1186.21	28.6999
1189.59	17.412
1192.96	23.8736
1196.34	27.7434
1199.71	22.5519
1203.09	22.6836
1206.46	39.3297
1209.84	43.0122
1213.21	18.6007
1216.59	37.9619
1219.96	18.1155
1223.34	24.9672
1226.71	30.3542
1230.09	28.9541
1233.46	46.4207
1236.84	54.9415
1240.21	32.608
1243.59	40.2084
1246.96	2.6256
1250.34	27.4428
1253.71	25.5816
1257.08	21.2691
1260.46	46.0878
1263.83	27.9866
1267.21	29.1202
1270.58	40.2817
1273.96	13.58
1277.33	14.649
1280.71	16.8588
1284.08	39.5355
1287.46	12.4006
1290.83	6.1747
1294.21	12.8324
1297.58	4.4449
