Measurement: Raman, 532 nm, unoriented, Raman Data Processed
Mineral: Magnesiochromite
Rruff sample: R050399
Ideal chemistry: MgCr^3+^_2_O_4_
Locality: Troodos Mountains, Cyprus
Source: Andy McCarthy
Description: Black grains
Measured chemistry: (Mg_0.68_Fe^2+^_0.32_)_Σ=1_(Cr_1.29_Al_0.64_Fe^3+^_0.07_)_Σ=2_O__4
Raman shift (cm-1)	intensity
164.189	0
167.082	0.893684
169.974	4.72647
172.867	3.65735
175.76	0.581146
178.652	4.95842
181.545	2.30991
184.438	3.3078
187.331	4.69373
190.223	0.180389
193.116	3.00809
196.009	4.24484
198.901	4.23233
201.794	3.0749
204.687	3.1414
207.579	3.52291
210.472	2.02296
213.365	0.407082
216.257	2.25931
219.15	2.10897
222.043	2.90823
224.936	4.77034
227.828	2.01308
230.721	2.83566
233.614	3.34298
236.506	4.25147
239.399	3.42118
242.292	3.25489
245.185	3.41604
248.077	3.35791
250.97	2.86695
253.863	2.87457
256.755	1.99405
259.648	3.53859
262.541	3.12781
265.433	4.0278
268.326	3.42268
271.219	2.63438
274.111	2.22474
277.004	3.52815
279.897	2.38323
282.79	3.49588
285.682	0.213196
288.575	2.98421
291.468	1.96431
294.36	2.29607
297.253	0.52372
300.146	0.835701
303.038	1.96434
305.931	1.12485
308.824	0.25972
311.717	0.191528
314.609	0.184067
317.502	2.70821
320.395	0.302719
323.287	4.13707
326.18	0.89325
329.073	0.786499
331.966	2.17804
334.858	1.93141
337.751	0.493912
340.644	0.114555
343.536	0.670631
346.429	0.017326
349.322	2.07988
352.214	0.274117
355.107	0.019791
358	1.63882
360.892	1.04053
363.785	0.440506
366.678	1.07683
369.571	0.734474
372.463	1.32373
375.356	0.400391
378.249	0.516098
381.141	2.8364
384.034	3.07949
386.927	3.4147
389.82	2.13944
392.712	2.09161
395.605	2.10926
398.498	2.28907
401.39	3.96962
404.283	1.15042
407.176	1.3343
410.068	3.29774
412.961	3.02981
415.854	2.31099
418.747	5.56844
421.639	5.92092
424.532	3.40722
427.425	4.74409
430.317	5.75957
433.21	7.82118
436.103	7.84446
438.995	7.3175
441.888	7.63758
444.781	9.82182
447.673	9.44376
450.566	11.4061
453.459	9.37688
456.352	10.8915
459.244	8.21928
462.137	7.99225
465.03	11.881
467.922	7.87129
470.815	8.6945
473.708	6.28819
476.601	6.38875
479.493	4.58459
482.386	5.14046
485.279	2.56001
488.171	0.616333
491.064	0.22168
493.957	0.966576
496.849	1.448
499.742	0.904678
502.635	0.137299
505.527	1.89413
508.42	3.18453
511.313	4.73222
514.206	7.40338
517.098	10.0371
519.991	13.8839
522.884	19.1583
525.776	22.3138
528.669	27.2113
531.562	32.5014
534.455	36.319
537.347	43.6635
540.24	50.1641
543.133	56.2422
546.025	61.6554
548.918	66.7598
551.811	69.8651
554.703	71.8516
557.596	72.5849
560.489	72.0507
563.381	70.9884
566.274	72.0589
569.167	72.6244
572.06	76.0419
574.952	78.2096
577.845	77.419
580.738	74.6618
583.63	70.4737
586.523	66.463
589.416	59.8777
592.308	54.9717
595.201	48.7163
598.094	48.032
600.987	43.1292
603.879	38.9297
606.772	33.8274
609.665	27.2279
612.557	18.961
615.45	11.6316
618.343	5.46669
621.236	1.64502
624.128	5.252
627.021	7.89323
629.914	7.26215
632.806	4.12266
635.699	0.012619
638.592	8.00623
641.484	17.5413
644.377	24.4673
647.27	32.2094
650.163	36.5605
653.055	39.4599
655.948	40.181
658.841	41.5121
661.733	42.5068
664.626	44.4802
667.519	47.0122
670.411	56.5019
673.304	64.3695
676.197	76.1573
679.09	89.1175
681.982	102.095
684.875	112.77
687.768	125.053
690.66	136.668
693.553	149.965
696.446	160.126
699.338	163.645
702.231	163.026
705.124	155.441
708.016	148.17
710.909	140.466
713.802	132.8
716.695	128.472
719.587	124.423
722.48	123.118
725.373	123.973
728.265	124.922
731.158	131.062
734.051	137.733
736.943	143.937
739.836	148.792
742.729	149.306
745.622	143.482
748.514	138.167
751.407	124.396
754.3	109.837
757.192	94.174
760.085	77.6515
762.978	65.4033
765.87	51.8946
768.763	38.2513
771.656	29.0593
774.549	19.0177
777.441	14.1038
780.334	8.80478
783.227	6.02647
786.119	3.60979
789.012	1.31054
791.905	1.00214
794.798	3.32481
797.69	2.65542
800.583	3.2879
803.476	3.86886
806.368	0.652237
809.261	1.71088
812.154	0.140503
815.046	0.818756
817.939	1.76046
820.832	2.56615
823.725	3.25229
826.617	4.08883
829.51	6.15157
832.403	4.74573
835.295	7.2077
838.188	8.59466
841.081	10.0413
843.973	9.30118
846.866	9.72001
849.759	11.6104
852.652	11.069
855.544	12.2651
858.437	11.739
861.33	9.44824
864.222	8.97924
867.115	8.19255
870.008	8.9302
872.9	8.28775
875.793	6.24338
878.686	7.54643
881.578	7.68753
884.471	6.31627
887.364	5.79143
890.257	4.11835
893.149	5.43774
896.042	5.95865
898.935	5.53659
901.827	3.50596
904.72	3.12307
907.613	4.42989
910.505	3.57024
913.398	2.63722
916.291	3.2353
919.184	2.73251
922.076	2.27412
924.969	1.38887
927.862	2.88077
930.754	2.31255
933.647	2.66568
936.54	1.54866
939.433	1.76805
942.325	0.609833
945.218	1.31222
948.111	1.34648
951.003	0.626293
953.896	1.92046
956.789	1.62159
959.681	0.799824
962.574	1.88538
965.467	0.162575
968.36	1.50373
971.252	1.10043
974.145	0.871082
977.038	0.873577
979.93	0.672985
982.823	1.28593
985.716	1.32333
988.608	2.07186
991.501	1.57044
994.394	0.177601
997.287	1.34141
1000.18	2.06348
1003.07	1.72215
1005.97	1.13702
1008.86	0.051128
1011.75	0.928543
1014.64	1.83309
1017.53	2.37217
1020.43	0.876328
1023.32	0.642117
1026.21	2.20107
1029.11	1.57066
1032	0.724857
1034.89	1.13871
1037.78	2.70844
1040.68	1.71577
1043.57	0.649963
1046.46	1.33323
1049.36	1.43124
1052.25	1.85518
1055.14	0.802132
1058.03	1.64417
1060.93	0.075081
1063.82	0.592983
1066.71	0.789001
1069.6	0.028534
1072.5	0.916267
1075.39	1.3879
1078.28	0.011135
1081.17	1.81559
1084.07	0.677517
1086.96	0.118839
1089.85	0.564053
1092.75	0.579811
1095.64	0.372784
1098.53	1.47479
1101.42	0.986347
1104.32	1.51476
1107.21	1.90394
1110.1	2.64142
1112.99	2.42923
1115.89	3.16785
1118.78	2.8624
1121.67	2.71252
1124.57	2.78952
1127.46	2.15056
1130.35	4.00147
1133.24	3.89091
1136.14	3.32916
1139.03	3.26268
1141.92	2.12703
1144.81	2.81056
1147.71	2.36227
1150.6	0.655842
1153.49	1.47167
1156.38	3.38641
1159.28	2.59224
1162.17	3.05115
1165.06	3.01899
1167.96	2.31021
1170.85	1.52196
1173.74	1.41536
1176.63	0.875008
1179.53	3.80513
1182.42	0.864883
1185.31	2.02664
1188.2	2.92741
1191.1	1.3454
1193.99	2.07042
1196.88	1.69597
1199.78	1.70602
1202.67	1.23309
1205.56	1.35059
1208.45	1.23482
1211.35	1.08764
1214.24	1.13652
1217.13	0.227325
1220.02	0.199593
1222.92	0.420841
1225.81	1.84491
1228.7	0.198635
1231.6	1.87223
1234.49	0.445553
1237.38	1.10268
1240.27	1.29637
1243.17	1.65057
1246.06	0.458485
1248.95	0.212311
1251.84	1.28255
1254.74	2.75129
1257.63	0.509056
1260.52	3.7863
1263.41	1.61931
1266.31	0.062283
1269.2	1.27583
1272.09	0.137199
