Measurement: Raman, 532 nm, unoriented, Raman Data Processed
Mineral: Magnesiochromite
Rruff sample: R060796
Ideal chemistry: MgCr^3+^_2_O_4_
Locality: State Line Chrome mine (Low's mine), Cecil County, Maryland, USA
Source: California Institute of Technology
Description: Black massive
Measured chemistry: (Mg_0.57_Fe^2+^_0.43_)_Σ=1_(Cr_1.52_Al_0.41_Fe^3+^_0.07_)_Σ=2_O_4_
Raman shift (cm-1)	intensity
169.253	0
172.145	32.8643
175.038	19.3984
177.931	12.0637
180.823	49.3755
183.716	29.1412
186.609	36.787
189.501	16.7019
192.394	39.8102
195.287	23.8122
198.18	59.4806
201.072	18.0923
203.965	51.866
206.858	35.3346
209.75	58.1051
212.643	18.4716
215.536	21.5145
218.428	4.20026
221.321	0.642487
224.214	10.385
227.107	3.15796
229.999	29.9883
232.892	5.92667
235.785	44.1714
238.677	18.2979
241.57	0.467041
244.463	25.3243
247.355	19.3616
250.248	0.802155
253.141	13.1397
256.033	26.5762
258.926	33.0799
261.819	3.6676
264.711	52.1138
267.604	18.8199
270.497	46.2902
273.39	18.3056
276.282	24.7012
279.175	33.0739
282.068	10.8396
284.96	29.9432
287.853	5.98837
290.746	33.6181
293.638	4.77612
296.531	9.77914
299.424	4.1926
302.317	27.4304
305.209	25.1009
308.102	21.3849
310.995	1.46756
313.887	49.2163
316.78	21.1842
319.673	23.7804
322.565	6.18332
325.458	30.7789
328.351	37.6494
331.244	24.7788
334.136	6.71704
337.029	6.74713
339.922	35.5553
342.814	39.3125
345.707	21.0082
348.6	16.5818
351.492	26.2258
354.385	3.00024
357.278	0.695557
360.171	26.0754
363.063	4.38724
365.956	15.7014
368.849	27.6538
371.741	33.6455
374.634	43.2445
377.527	0.306488
380.419	31.3532
383.312	26.2444
386.205	10.9591
389.098	20.6764
391.99	22.5511
394.883	28.6818
397.776	3.75177
400.668	35.4107
403.561	22.2071
406.454	0.476898
409.346	20.7535
412.239	14.9818
415.132	10.5031
418.025	14.6925
420.917	0.562164
423.81	18.1237
426.703	2.03836
429.595	16.6423
432.488	18.2715
435.381	17.2561
438.273	20.9107
441.166	16.0868
444.059	14.4325
446.952	33.6328
449.844	59.712
452.737	19.401
455.63	9.27454
458.522	20.6291
461.415	29.5034
464.308	41.1735
467.2	21.3441
470.093	21.9537
472.986	26.2304
475.878	49.6179
478.771	10.3909
481.664	11.6006
484.556	5.57883
487.449	4.43347
490.342	7.73569
493.235	2.20114
496.127	7.42303
499.02	3.48682
501.913	12.8667
504.805	23.1143
507.698	7.79178
510.591	61.3425
513.484	33.0605
516.376	90.2649
519.269	83.4694
522.162	95.9639
525.054	102.034
527.947	164.275
530.84	170.179
533.732	220.608
536.625	231.227
539.518	247.991
542.411	284.601
545.303	322.162
548.196	327.59
551.089	297.198
553.981	291.925
556.874	322.194
559.767	299.088
562.659	309.108
565.552	301.51
568.445	318.014
571.338	298.583
574.23	312.946
577.123	272.85
580.016	209.964
582.908	235.314
585.801	206.254
588.694	175.783
591.586	184.07
594.479	153.794
597.372	142.559
600.265	134.677
603.157	110.353
606.05	74.3846
608.943	78.29
611.835	6.37006
614.728	11.921
617.621	20.3496
620.513	33.2325
623.406	13.2284
626.299	7.86472
629.191	34.7308
632.084	39.2803
634.977	120.398
637.87	160.698
640.762	211.632
643.655	203.092
646.548	220.345
649.44	213.504
652.333	224.841
655.226	213.442
658.118	246.996
661.011	288.033
663.904	292.195
666.797	357.631
669.689	407.324
672.582	496.115
675.474	527.503
678.367	567.358
681.26	658.148
684.153	689.508
687.045	733.644
689.938	724.03
692.831	716.651
695.723	655.565
698.616	576.312
701.509	506.117
704.402	442.612
707.294	335.923
710.187	260.681
713.08	206.709
715.972	186.921
718.865	135.27
721.758	141.305
724.651	85.2859
727.543	76.7151
730.436	54.4796
733.328	43.5805
736.221	19.4889
739.114	27.3946
742.007	19.8214
744.899	15.1038
747.792	3.60773
750.685	20.546
753.577	8.35944
756.47	10.4362
759.363	2.7786
762.255	7.32562
765.148	14.8132
768.041	18.8157
770.934	11.2139
773.826	24.4156
776.719	4.99689
779.612	25.1891
782.504	29.7232
785.397	17.7235
788.29	29.6369
791.182	10.7214
794.075	34.7422
796.968	40.2441
799.86	19.5678
802.753	30.9311
805.646	7.83844
808.539	15.7689
811.431	10.1528
814.324	2.72104
817.217	30.8306
820.109	20.6451
823.002	13.6534
825.895	36.3135
828.787	50.8613
831.68	19.1657
834.573	6.69292
837.466	16.5265
840.358	12.2121
843.251	6.19054
846.144	11.4313
849.036	21.5095
851.929	23.1091
854.822	19.0603
857.714	3.89764
860.607	15.9255
863.5	28.7865
866.393	28.2559
869.285	9.5054
872.178	9.5321
875.071	8.3344
877.963	9.33423
880.856	15.6379
883.749	1.64806
886.641	16.1268
889.534	13.2127
892.427	14.7077
895.32	39.7579
898.212	32.3567
901.105	7.9187
903.998	24.7719
906.89	8.10573
909.783	30.8684
912.676	33.7104
915.568	9.73877
918.461	24.0347
921.354	34.9952
924.247	29.0961
927.139	14.3637
930.032	3.84068
932.925	24.5797
935.817	3.47662
938.71	16.6749
941.603	18.7378
944.495	19.4931
947.388	22.8475
950.281	15.075
953.174	25.7446
956.066	7.20128
958.959	29.078
961.852	27.8197
964.744	25.8545
967.637	0.247284
970.53	11.2849
973.422	9.03461
976.315	0.59996
979.208	8.43283
982.101	26.8004
984.993	35.4812
987.886	0.133148
990.779	20.3064
993.671	7.21347
996.564	27.8201
999.457	24.3813
1002.35	27.4235
1005.24	13.64
1008.13	18.923
1011.03	8.35901
1013.92	4.17064
1016.81	13.598
1019.71	14.521
1022.6	19.1229
1025.49	23.7393
1028.38	36.4864
1031.28	21.644
1034.17	20.099
1037.06	34.3011
1039.95	14.0163
1042.85	15.0875
1045.74	14.1617
1048.63	26.047
1051.53	0.738083
1054.42	39.9686
1057.31	28.8003
1060.2	26.2922
1063.1	37.3024
1065.99	20.7903
1068.88	15.6266
1071.77	18.8069
1074.67	20.0338
1077.56	6.5184
1080.45	15.8496
1083.35	16.384
1086.24	7.21599
1089.13	16.3082
1092.02	30.9149
1094.92	39.3253
1097.81	48.5754
1100.7	45.3783
1103.59	41.2921
1106.49	33.3186
1109.38	26.1024
1112.27	9.57475
1115.16	29.6178
1118.06	3.33435
1120.95	24.0158
1123.84	24.8005
1126.73	21.6876
1129.63	11.469
1132.52	21.0144
1135.41	28.6663
1138.31	21.3508
1141.2	13.221
1144.09	17.9429
1146.98	18.6875
1149.88	15.9187
1152.77	12.2102
1155.66	9.46721
1158.56	14.3064
1161.45	1.10176
1164.34	9.79745
1167.23	25.4844
1170.13	17.9533
1173.02	0.01413
1175.91	2.87129
1178.8	1.9003
1181.7	40.3413
1184.59	3.73471
1187.48	28.1034
1190.38	7.70294
1193.27	7.57605
1196.16	23.6044
1199.05	12.4114
1201.94	32.711
1204.84	22.5023
1207.73	29.3871
1210.62	30.5461
1213.52	14.24
1216.41	24.2844
1219.3	3.3766
1222.19	20.8132
1225.09	15.6623
1227.98	28.1438
1230.87	32.962
1233.77	40.1818
1236.66	35.634
1239.55	23.3108
1242.44	47.5626
1245.34	25.6711
1248.23	11.7175
1251.12	28.2254
1254.01	38.4137
1256.91	8.89723
1259.8	17.0565
1262.69	41.271
1265.59	23.7458
1268.48	23.2201
1271.37	21.9413
1274.26	36.4835
1277.16	39.9302
1280.05	20.3456
1282.94	39.7317
1285.83	26.8123
1288.73	29.1041
1291.62	16.9219
