Measurement: Raman, 785 nm, unoriented, Raman Data Processed
Mineral: Magnesiocoulsonite
Rruff sample: R070218
Ideal chemistry: MgV^3+^_2_O_4_
Locality: Pereval Marble Quarry, Sludyanka (Slyudyanka), Baikal area, Buriatia (Buryatia) Republic, Transbaikalia (Zabaykalye), Eastern-Siberian Region, Russia
Source: Michael Scott
Description: Black grains with internal hints of red
Raman shift (cm-1)	intensity
196.712	0
199.604	11.1753
202.497	39.4878
205.39	66.8745
208.282	92.7441
211.175	77.8525
214.068	126.718
216.961	131.058
219.853	213.686
222.746	261.131
225.639	298.033
228.531	281.894
231.424	284.992
234.317	282.26
237.209	283.224
240.102	315.134
242.995	323.905
245.888	281.094
248.78	214.929
251.673	195.675
254.566	234.787
257.458	202.529
260.351	180.722
263.244	163.239
266.137	160.821
269.029	102.881
271.922	47.5283
274.815	70.9824
277.707	9.55859
280.6	27.9605
283.493	20.5439
286.385	10.7744
289.278	2.44336
292.171	74.3345
295.063	87.0049
297.956	84.4106
300.849	84.2363
303.742	67.9375
306.634	76.6064
309.527	105.482
312.42	23.1206
315.312	10.1553
318.205	21.1885
321.098	20.5122
323.99	16.5342
326.883	66.7583
329.776	87.8296
332.669	91.5664
335.561	76.9619
338.454	108.411
341.347	105.768
344.239	142.887
347.132	118.183
350.025	144.4
352.918	182.373
355.81	131.87
358.703	177.449
361.596	164.224
364.488	190.166
367.381	133.976
370.274	145.903
373.166	201.341
376.059	232.148
378.952	232.284
381.844	154.709
384.737	142.565
387.63	150.203
390.523	171.597
393.415	188.044
396.308	180.637
399.201	162.375
402.093	73.8833
404.986	63.918
407.879	86.6743
410.772	10.6118
413.664	22.7749
416.557	22.104
419.45	70.7271
422.342	44.082
425.235	31.2412
428.128	37.8677
431.02	29.5767
433.913	26.5903
436.806	30.2036
439.699	24.6914
442.591	71.7827
445.484	101.439
448.377	41.562
451.269	36.1299
454.162	27.5127
457.055	50.8359
459.947	23.3357
462.84	44.147
465.733	46.4553
468.625	47.3525
471.518	3.89893
474.411	22.054
477.304	24.0281
480.196	21.7612
483.089	45.709
485.982	32.8242
488.874	45.947
491.767	0.838623
494.66	8.07861
497.553	58.8547
500.445	2.15991
503.338	52.3628
506.231	53.2434
509.123	93.5229
512.016	111.677
514.909	160.062
517.802	220.06
520.694	287.982
523.587	381.257
526.48	468.585
529.372	550.422
532.265	466.615
535.158	388.319
538.05	356.321
540.943	281.259
543.836	222.457
546.729	225.269
549.621	170.116
552.514	159.754
555.407	171.419
558.299	119.138
561.192	142.293
564.085	77.7859
566.977	93.262
569.87	65.7395
572.763	48.5649
575.655	5.01978
578.548	33.0537
581.441	0.959473
584.333	10.3972
587.226	46.0369
590.119	44.9822
593.012	0.630371
595.904	49.0957
598.797	48.7517
601.69	30.5085
604.582	36.8987
607.475	9.37085
610.368	33.9407
613.26	10.1177
616.153	0.88501
619.046	9.7666
621.939	31.4634
624.831	23.3919
627.724	8.55566
630.617	19.0347
633.509	37.6777
636.402	17.9434
639.295	11.4883
642.188	54.9172
645.08	28.7576
647.973	51.5896
650.866	47.1462
653.758	43.7297
656.651	83.0359
659.544	165.031
662.436	311.312
665.329	472.494
668.222	805.49
671.115	1111.54
674.007	1545.8
676.9	1905.1
679.793	1846.09
682.685	1342.16
685.578	908.476
688.471	565.777
691.363	376.452
694.256	308.61
697.149	215.653
700.042	138.955
702.934	148.956
705.827	157.929
708.72	114.159
711.612	86.6565
714.505	46.6526
717.398	119.057
720.29	70.7422
723.183	101.659
726.076	98.5037
728.968	60.4504
731.861	65.9124
734.754	27.4443
737.647	50.8586
740.539	7.93018
743.432	38.5732
746.325	48.7524
749.217	27.3843
752.11	51.1973
755.003	17.1016
757.895	32.8723
760.788	34.0828
763.681	6.02686
766.574	12.353
769.466	29.3779
772.359	10.7764
775.252	14.0669
778.144	5.69116
781.037	7.07935
783.93	1.63574
786.822	35.49
789.715	23.9002
792.608	6.43921
795.501	10.1057
798.393	47.0691
801.286	28.2854
804.179	29.3652
807.071	76.2249
809.964	67.6296
812.857	45.2505
815.75	15.7361
818.642	46.0393
821.535	37.9788
824.428	10.2615
827.32	22.0146
830.213	75.3547
833.106	33.1445
835.998	93.8308
838.891	71.4561
841.784	73.2183
844.677	117.941
847.569	50.248
850.462	28.7651
853.355	75.2627
856.247	33.2817
859.14	16.1116
862.033	31.708
864.925	32.3804
867.818	47.574
870.711	69.6274
873.604	71.783
876.496	41.5376
879.389	56.3818
882.282	35.2124
885.174	42.543
888.067	77.6611
890.96	31.616
893.852	46.6509
896.745	29.7546
899.638	60.8091
902.53	59.9168
905.423	38.1711
908.316	25.7454
911.209	34.6787
914.101	19.855
916.994	57.1948
919.887	2.3728
922.779	31.1611
925.672	44.99
928.565	38.9873
931.457	75.4705
934.35	43.1038
937.243	29.7441
940.136	60.4761
943.028	26.0947
945.921	65.584
948.814	20.8535
951.706	60.311
954.599	33.5493
957.492	79.51
960.385	38.2285
963.277	16.3389
966.17	38.2417
969.063	57.6282
971.955	46.4753
974.848	51.7353
977.741	34.4011
980.633	46.4099
983.526	15.1316
986.419	11.4766
989.312	52.5947
992.204	21.0908
995.097	44.7229
997.99	32.6614
1000.88	89.5654
1003.77	87.5938
1006.67	42.7798
1009.56	12.9072
1012.45	2.76562
1015.35	24.3989
1018.24	48.6765
1021.13	72.2012
1024.02	8.30835
1026.92	55.096
1029.81	32.6855
1032.7	52.3867
1035.6	101.066
1038.49	17.8003
1041.38	16.4556
1044.27	48.896
1047.17	39.4451
1050.06	18.356
1052.95	5.89526
1055.84	28.4863
1058.74	31.2041
1061.63	34.1443
1064.52	35.6921
1067.41	105.784
1070.31	72.293
1073.2	69.7236
1076.09	113.392
1078.98	106.253
1081.88	137.729
1084.77	127.361
1087.66	164.294
1090.56	196.192
1093.45	184.473
1096.34	222.075
1099.23	210.458
1102.13	230.029
1105.02	173.883
1107.91	233.756
1110.81	214.942
1113.7	228.088
1116.59	220.621
1119.48	216.987
1122.38	172.991
1125.27	213.885
1128.16	195.559
1131.05	219.341
1133.95	209.738
1136.84	230.303
1139.73	204.295
1142.62	176.295
1145.52	150.926
1148.41	192.017
1151.3	137.172
1154.19	101.914
1157.09	74.9309
1159.98	88.1091
1162.87	39.5027
1165.77	42.9793
1168.66	5.94385
1171.55	31.5957
1174.44	40.8513
1177.34	7.82031
1180.23	14.5808
1183.12	22.1389
1186.02	12.6999
1188.91	36.0808
1191.8	34.7659
1194.69	27.4712
1197.59	38.5835
1200.48	20.771
1203.37	43.415
1206.26	7.18579
1209.16	33.2866
1212.05	21.6553
1214.94	78.2571
1217.84	42.0024
1220.73	42.7507
1223.62	63.8875
1226.51	57.5676
1229.41	64.9255
1232.3	53.3579
1235.19	15.7004
