Measurement: Raman, 780 nm, unoriented, Raman Data Processed
Mineral: Magnesio-fluoro-arfvedsonite
Rruff sample: R050515
Ideal chemistry: NaNa_2_(Mg_4_Fe^3+^)Si_8_O_22_F_2_
Locality: unknown
Source: Frank Hawthorne
Description: Numerous small dark green fragments
Measured chemistry: (Na_0.48_K_0.20_[box]_0.32_)(Na_1.50_Ca_0.50_)_Σ=2_(Mg_2.05_Fe^2+^_1.45_Mn_0.50_)_Σ=4_(Fe^3+^_0.80_Mn_0.05_Al_0.10_Ti_0.05_)(Si_0.97_Al_0.03_)_8_O_22_(F_0.65_(OH)_0.35_)_2_
Raman shift (cm-1)	intensity
129.982	0
132.875	1.54211
135.767	5.75037
138.66	12.1814
141.553	19.1511
144.446	28.989
147.338	38.2925
150.231	42.6394
153.124	42.4105
156.016	43.2075
158.909	46.4075
161.802	48.8438
164.694	55.3617
167.587	50.6337
170.48	45.264
173.373	40.1528
176.265	36.5605
179.158	36.1556
182.051	41.5198
184.943	38.4176
187.836	43.5233
190.729	39.419
193.621	39.713
196.514	38.0134
199.407	36.0974
202.299	32.1031
205.192	29.5978
208.085	25.1165
210.978	21.3883
213.87	18.8494
216.763	11.0796
219.656	7.89819
222.548	7.96375
225.441	4.32935
228.334	3.90808
231.226	1.75122
234.119	2.90833
237.012	1.34851
239.905	2.92456
242.797	5.35144
245.69	2.86108
248.583	0.234375
251.475	0.010498
254.368	1.84245
257.261	2.96863
260.154	2.57434
263.046	3.74194
265.939	1.27808
268.832	8.42541
271.724	8.59961
274.617	10.6606
277.51	11.8104
280.402	11.2812
283.295	15.0781
286.188	17.3189
289.08	16.7331
291.973	18.1743
294.866	14.439
297.759	18.4208
300.651	15.5651
303.544	9.80359
306.437	11.0818
309.329	8.19373
312.222	11.3074
315.115	7.07605
318.007	9.62988
320.9	9.78101
323.793	9.94458
326.686	8.21912
329.578	9.48145
332.471	10.4701
335.364	12.5156
338.256	18.2411
341.149	19.1309
344.042	24.0111
346.935	26.4681
349.827	29.5392
352.72	32.8157
355.613	34.7828
358.505	33.9098
361.398	33.7759
364.291	35.777
367.183	31.7827
370.076	34.8048
372.969	32.1461
375.861	28.6124
378.754	26.2832
381.647	19.5692
384.54	18.0795
387.432	14.7257
390.325	14.2823
393.218	9.38989
396.11	7.05884
399.003	7.24158
401.896	6.4032
404.788	2.09448
407.681	5.2594
410.574	4.92749
413.467	4.74268
416.359	2.14648
419.252	2.26672
422.145	3.15637
425.037	3.07349
427.93	1.09351
430.823	3.92114
433.716	2.14697
436.608	1.83765
439.501	1.07703
442.394	3.21924
445.286	5.47302
448.179	7.62341
451.072	9.5199
453.964	8.83801
456.857	9.9231
459.75	14.0781
462.642	11.2067
465.535	7.39734
468.428	6.54053
471.321	9.41626
474.213	5.45898
477.106	5.56116
479.999	2.27515
482.891	0.790283
485.784	0.180176
488.677	1.38684
491.57	0.918091
494.462	0.054321
497.355	1.80798
500.248	0.853638
503.14	1.61194
506.033	5.07422
508.926	6.57458
511.818	11.3298
514.711	11.7873
517.604	14.3151
520.496	17.1418
523.389	19.6001
526.282	23.1415
529.175	32.5239
532.067	32.98
534.96	31.4172
537.853	33.6772
540.745	35.9738
543.638	36.26
546.531	34.4282
549.423	34.9243
552.316	37.5175
555.209	38.2999
558.102	34.5441
560.994	33.0649
563.887	30.0706
566.78	26.8149
569.672	25.908
572.565	27.382
575.458	22.6273
578.351	17.447
581.243	15.7902
584.136	13.3036
587.029	12.2457
589.921	12.1068
592.814	8.98309
595.707	7.07111
598.599	2.11554
601.492	1.5777
604.385	2.32178
607.278	2.28229
610.17	2.52826
613.063	2.54358
615.956	1.35175
618.848	0.166321
621.741	0.307617
624.634	0.640076
627.526	3.01856
630.419	4.23505
633.312	3.30633
636.205	6.60565
639.097	10.4839
641.99	8.48346
644.883	11.8872
647.775	13.84
650.668	21.7975
653.561	22.0478
656.453	26.1668
659.346	32.7034
662.239	39.5933
665.131	42.9475
668.024	44.7348
670.917	43.7528
673.81	43.4468
676.702	35.5513
679.595	23.548
682.488	19.2728
685.38	12.1642
688.273	10.3218
691.166	4.92029
694.058	6.46619
696.951	3.33667
699.844	0.111145
702.737	0.276917
705.629	0.516846
708.522	0.253662
711.415	3.48694
714.307	0.048645
717.2	0.582825
720.093	0.510925
722.986	0.666626
725.878	1.28021
728.771	0.740417
731.664	3.06964
734.556	2.09003
737.449	5.00824
740.342	2.30926
743.234	2.89215
746.127	0.537476
749.02	4.53131
751.913	3.62122
754.805	0.832947
757.698	0.786133
760.591	0.078125
763.483	0.231567
766.376	2.47992
769.269	4.67011
772.161	5.06519
775.054	3.79877
777.947	2.57831
780.84	5.0177
783.732	2.91199
786.625	0.119934
789.518	2.22406
792.41	3.56897
795.303	3.86255
798.196	3.38452
801.088	0.092651
803.981	0.703796
806.874	2.97382
809.766	1.74243
812.659	2.22699
815.552	1.89654
818.445	2.57745
821.337	3.64935
824.23	2.3678
827.123	0.838013
830.015	4.92383
832.908	4.37903
835.801	8.10657
838.693	11.4169
841.586	14.5138
844.479	14.0693
847.372	15.3016
850.264	18.3596
853.157	19.1938
856.05	19.3269
858.942	19.1641
861.835	13.7614
864.728	12.9006
867.62	11.9077
870.513	14.0466
873.406	10.8842
876.299	11.2722
879.191	9.45459
882.084	6.02924
884.977	6.8111
887.869	8.12994
890.762	6.38739
893.655	7.12634
896.548	5.40704
899.44	5.55914
902.333	6.27466
905.226	7.90692
908.118	2.12451
911.011	1.72662
913.904	2.99109
916.796	1.7807
919.689	3.5929
922.582	0.76825
925.474	1.87866
928.367	2.78754
931.26	0.862122
934.153	5.07782
937.045	0.243164
939.938	1.75416
942.831	1.29681
945.723	6.29541
948.616	5.92352
951.509	7.00214
954.401	10.4936
957.294	12.39
960.187	10.1808
963.08	12.244
965.972	8.4455
968.865	12.9475
971.758	11.2198
974.65	11.2068
977.543	7.8313
980.436	11.9407
983.328	11.7473
986.221	11.6236
989.114	9.65472
992.006	6.35754
994.899	6.94257
997.792	9.57867
1000.68	6.32837
1003.58	3.28064
1006.47	4.005
1009.36	2.97473
1012.25	3.22479
1015.15	2.74469
1018.04	3.42975
1020.93	0.073242
1023.83	1.94092
1026.72	1.46594
1029.61	0.458984
1032.5	2.34003
1035.4	1.73004
1038.29	4.31665
1041.18	2.96881
1044.08	8.4079
1046.97	7.86438
1049.86	14.8557
1052.75	18.8532
1055.65	20.3885
1058.54	27.6488
1061.43	31.7648
1064.32	32.8398
1067.22	34.2437
1070.11	36.3768
1073	39.6334
1075.89	39.027
1078.79	43.9539
1081.68	45.6245
1084.57	45.4111
1087.47	43.2256
1090.36	47.1397
1093.25	46.6272
1096.14	47.046
1099.04	44.7082
1101.93	45.1228
1104.82	42.6917
1107.71	41.2439
1110.61	41.741
1113.5	38.0346
1116.39	34.5178
1119.29	30.483
1122.18	28.973
1125.07	27.5479
1127.96	25.8093
1130.86	18.8323
1133.75	16.6854
1136.64	12.808
1139.53	14.7826
1142.43	9.82196
1145.32	4.82599
1148.21	5.54572
1151.11	6.29077
1154	0.434875
1156.89	2.04055
1159.78	1.22064
1162.68	2.23621
1165.57	0.623962
1168.46	0.441406
1171.35	0.490662
1174.25	3.03381
1177.14	5.60644
1180.03	5.65112
1182.92	6.14484
1185.82	10.2747
1188.71	11.1133
1191.6	10.6696
1194.49	17.9837
1197.39	17.486
1200.28	27.9174
1203.17	32.1757
1206.07	36.808
1208.96	34.3472
1211.85	38.859
1214.74	45.8261
1217.64	39.4207
1220.53	36.5973
1223.42	36.9392
1226.32	41.481
1229.21	36.8484
1232.1	30.4307
1234.99	26.7025
1237.89	22.6984
1240.78	19.4709
1243.67	13.0914
1246.56	15.41
1249.46	13.1472
1252.35	8.94165
1255.24	1.29895
1258.13	3.49841
1261.03	5.07568
1263.92	6.07056
1266.81	11.0122
1269.71	10.7944
1272.6	0.672729
1275.49	2.68603
1278.38	6.08276
1281.28	2.43506
1284.17	4.31836
