Measurement: Raman, 780 nm, unoriented, Raman Data Processed
Mineral: Magnesio-fluoro-hastingsite
Rruff sample: R141098
Ideal chemistry: NaCa_2_(Mg_4_Fe^3+^)(Si_6_Al_2_)O_22_F_2_
Locality: Uroi Hill (Arany Hill), Simeria, Hunedoara Co., Romania
Source: Ch. and H. Sch√§fer
Description: Prismatic brown to orange-brown crystals
Raman shift (cm-1)	intensity
96.8632	0
100.238	0.532715
103.613	16.4692
106.988	28.937
110.362	48.2373
113.737	50.6284
117.112	82.6582
120.487	76.8247
123.862	77.1499
127.237	47.064
130.611	20.5102
133.986	1.20508
137.361	0.90625
140.736	11.1079
144.111	15.8677
147.485	9.47461
150.86	9.61572
154.235	32.4336
157.61	58.7373
160.985	85.5142
164.359	83.6177
167.734	65.5742
171.109	60.2046
174.484	72.8838
177.859	98.0571
181.234	126.206
184.608	106.052
187.983	58.0195
191.358	25.1265
194.733	5.15479
198.108	6.52734
201.482	4.48438
204.857	13.4023
208.232	27.4116
211.607	51.7583
214.982	85.2202
218.357	117.603
221.731	151.917
225.106	179.349
228.481	190.862
231.856	164.071
235.231	142.32
238.605	136.766
241.98	101.44
245.355	95.9902
248.73	84.5166
252.105	62.8071
255.48	35.0493
258.854	21.4233
262.229	5.66943
265.604	6.66455
268.979	4.79443
272.354	3.0791
275.728	2.67871
279.103	14.6807
282.478	21.748
285.853	25.5015
289.228	60.0444
292.602	89.0571
295.977	92.7398
299.352	87.3052
302.727	87.0254
306.102	70.1367
309.476	70.6797
312.851	72.355
316.226	93.4614
319.601	105.055
322.976	132.69
326.351	157.31
329.725	175.344
333.1	205.568
336.475	264.733
339.85	292.394
343.225	305.544
346.599	300.64
349.974	284.426
353.349	258.475
356.724	245.925
360.099	214.542
363.474	188.221
366.848	159.506
370.223	144.35
373.598	102.375
376.973	90.4443
380.348	78.6436
383.722	66.0269
387.097	54.6069
390.472	31.4785
393.847	40.1499
397.222	27.1318
400.596	16.0347
403.971	18.3189
407.346	18.3027
410.721	13.9995
414.096	14.7393
417.471	10.4072
420.845	0.601563
424.22	5.75732
427.595	0.867188
430.97	10.584
434.345	2.9585
437.719	13.7437
441.094	2.87158
444.469	1.05713
447.844	4.41748
451.219	6.47754
454.594	12.1274
457.968	16.7725
461.343	19.5903
464.718	17.1025
468.093	30.728
471.468	45.1812
474.842	30.4605
478.217	17.0288
481.592	27.1558
484.967	16.2373
488.342	20.6729
491.716	19.7456
495.091	15.4775
498.466	11.377
501.841	4.63867
505.216	5.10059
508.591	1.69727
511.965	1.63867
515.34	8.80664
518.715	6.18164
522.09	15.1435
525.465	9.34277
528.84	27.2202
532.214	36.5645
535.589	47.7183
538.964	61.8364
542.339	64.8115
545.713	72.4458
549.088	70.9448
552.463	86.4468
555.838	88.7231
559.213	89.458
562.588	86.228
565.962	86.5063
569.337	92.8979
572.712	92.8423
576.087	80.2485
579.462	79.7939
582.837	66.9981
586.211	62.7647
589.586	45.0869
592.961	41.4253
596.336	41.6091
599.711	31.1545
603.085	32.0232
606.46	23.3728
609.835	22.1084
613.21	19.0515
616.585	13.8498
619.96	12.1592
623.334	16.6941
626.709	5.08008
630.084	6.75684
633.459	8.90015
636.833	1.58789
640.208	15.7146
643.583	11.3999
646.958	17.8823
650.333	33.7561
653.708	43.697
657.082	84.1489
660.457	113.794
663.832	144.381
667.207	171.505
670.582	202.826
673.957	226.221
677.331	201.452
680.706	148.484
684.081	105.277
687.456	67.4712
690.831	45.4382
694.205	27.887
697.58	18.9915
700.955	23.1196
704.33	15.5754
707.705	11.1221
711.079	13.3572
714.454	16.4744
717.829	14.3259
721.204	0.240234
724.579	7.60644
727.953	7.91992
731.328	10.0584
734.703	10.4026
738.078	6.22388
741.453	5.573
744.828	5.65454
748.202	6.59668
751.577	13.2041
754.952	8.08154
758.327	9.20142
761.702	3.25366
765.077	0.376953
768.451	1.86963
771.826	7.81396
775.201	3.02881
778.576	8.93115
781.951	7.40137
785.325	3.03101
788.7	9.56274
792.075	6.91113
795.45	12.8262
798.825	7.60986
802.199	3.92993
805.574	14.2104
808.949	13.7297
812.324	11.4504
815.699	17.4898
819.073	25.2883
822.448	30.0859
825.823	26.2881
829.198	31.5911
832.573	28.4521
835.948	36.4436
839.322	42.2798
842.697	39.7502
846.072	42.8088
849.447	42.126
852.822	43.5911
856.197	34.1023
859.571	27.8953
862.946	36.3701
866.321	26.321
869.696	25.5456
873.071	23.2109
876.445	13.6104
879.82	11.228
883.195	17.6826
886.57	11.7046
889.945	5.68042
893.319	10.1741
896.694	5.0542
900.069	5.53442
903.444	3.94092
906.819	6.58496
910.193	3.47827
913.568	3.23462
916.943	6.82471
920.318	9.30322
923.693	3.2124
927.068	8.33935
930.442	11.0818
933.817	12.2705
937.192	17.7583
940.567	18.6799
943.942	8.93262
947.317	17.8733
950.691	14.0837
954.066	23.2354
957.441	16.7754
960.816	13.2725
964.191	11.3508
967.565	10.1362
970.94	17.9182
974.315	0.620117
977.69	0.98999
981.065	8.57349
984.439	7.23047
987.814	5.57886
991.189	0.175293
994.564	10.0447
997.939	0.94043
1001.31	6.89307
1004.69	10.2529
1008.06	6.448
1011.44	17.9294
1014.81	15.2263
1018.19	18.0523
1021.56	13.2327
1024.94	18.8291
1028.31	13.24
1031.69	16.8957
1035.06	25.666
1038.44	23.7546
1041.81	19.1194
1045.19	13.7368
1048.56	9.78223
1051.94	10.0373
1055.31	8.03711
1058.68	0.496338
1062.06	2.40381
1065.43	0.216064
1068.81	1.00293
1072.18	3.00415
1075.56	2.19946
1078.93	9.25781
1082.31	1.30225
1085.68	4.45483
1089.06	20.1143
1092.43	26.3189
1095.81	23.5491
1099.18	43.9602
1102.56	57.7986
1105.93	78.5559
1109.31	104.24
1112.68	112.749
1116.06	125.521
1119.43	146.467
1122.81	174.853
1126.18	187.027
1129.56	207.33
1132.93	222.389
1136.31	247.867
1139.68	273.883
1143.06	289.144
1146.43	303.388
1149.81	310.425
1153.18	320.631
1156.56	319.296
1159.93	319.107
1163.31	320.425
1166.68	318.829
1170.05	306.314
1173.43	292.442
1176.8	274.674
1180.18	259.993
1183.55	237.186
1186.93	198.834
1190.3	181.45
1193.68	153.788
1197.05	137.308
1200.43	108.821
1203.8	88.9751
1207.18	76.2612
1210.55	63.0659
1213.93	47.3999
1217.3	26.978
1220.68	12.2248
1224.05	13.3352
1227.43	2.78638
1230.8	4.75317
1234.18	5.35864
1237.55	4.32373
1240.92	6.41894
1244.3	2.03833
1247.67	13.6846
1251.05	19.1465
1254.42	38.8633
1257.8	53.2732
1261.17	52.7302
1264.55	38.1169
1267.92	30.7317
1271.3	16.2441
1274.67	11.9287
1278.05	11.5588
1281.42	3.69775
1284.8	0
