Measurement: Raman, 532 nm, unoriented, Raman Data Processed
Mineral: Magnetite
Rruff sample: R060222
Ideal chemistry: Fe^2+^Fe^3+^_2_O_4_
Locality: Cerro Hua√±aquino, Potosi Department, Bolivia
Source: Rock Currier
Description: Black octahedra, the surface is hematite and the interior is magnetite
Measured chemistry: (Fe^2+^_0.95_Mg_0.05_)(Fe^3+^_0.99_Al_0.01_)_2_O_4_
Raman shift (cm-1)	intensity
156.2	0
159.092	0.031017
161.985	3.21178
164.878	6.23591
167.77	1.71212
170.663	3.10386
173.556	4.47779
176.448	6.51955
179.341	4.5569
182.234	2.89935
185.127	6.25469
188.019	11.6775
190.912	5.92511
193.805	7.59504
196.697	5.1662
199.59	6.54406
202.483	4.80866
205.375	0.67284
208.268	8.49948
211.161	5.22956
214.054	0.081714
216.946	0.417828
219.839	0.35039
222.732	4.99327
225.624	1.78319
228.517	3.39679
231.41	2.84502
234.303	4.71819
237.195	2.14711
240.088	2.19633
242.981	1.19329
245.873	1.94259
248.766	0.413697
251.659	2.75528
254.551	0.276086
257.444	1.96999
260.337	1.34287
263.229	0.580072
266.122	0.827767
269.015	0.365666
271.908	1.51831
274.8	1.50398
277.693	2.04038
280.586	3.76221
283.478	2.22572
286.371	4.56575
289.264	4.66611
292.156	6.46885
295.049	5.76878
297.942	6.79462
300.835	4.89942
303.727	9.87215
306.62	9.70961
309.513	7.02241
312.405	7.09406
315.298	5.93733
318.191	4.88277
321.084	4.5181
323.976	3.27633
326.869	2.87694
329.762	0.069991
332.654	1.91388
335.547	2.46621
338.44	0.597755
341.332	5.0225
344.225	0.515421
347.118	2.24496
350.01	0.7385
352.903	3.246
355.796	0.243258
358.689	2.45596
361.581	0.536611
364.474	1.03049
367.367	0.866452
370.259	3.00913
373.152	1.2019
376.045	0.11691
378.938	2.8452
381.83	0.974859
384.723	1.89163
387.616	1.66544
390.508	2.86196
393.401	0.351569
396.294	4.2787
399.186	1.27937
402.079	1.47744
404.972	2.77184
407.865	0.21254
410.757	2.36247
413.65	2.23433
416.543	4.67146
419.435	2.53581
422.328	3.45454
425.221	4.40041
428.113	4.03139
431.006	1.19267
433.899	3.21899
436.791	4.0098
439.684	4.42268
442.577	2.50014
445.469	1.12594
448.362	1.89593
451.255	0.178849
454.148	0.135277
457.04	0.651024
459.933	1.81417
462.826	3.43052
465.718	4.40229
468.611	3.69362
471.504	1.67267
474.397	1.18066
477.289	1.17333
480.182	1.61904
483.075	0.71408
485.967	1.70705
488.86	0.945246
491.753	0.64695
494.645	0.984906
497.538	0.38318
500.431	3.04643
503.324	1.12423
506.216	2.04841
509.109	1.28418
512.002	4.0088
514.894	3.31139
517.787	0.678888
520.68	2.46686
523.572	2.806
526.465	5.1967
529.358	8.41371
532.25	10.966
535.143	8.82999
538.036	10.6567
540.929	9.49441
543.821	9.97104
546.714	12.5405
549.607	12.3422
552.5	12.3401
555.392	10.4072
558.285	5.32705
561.178	10.7079
564.07	3.8521
566.963	4.97189
569.856	6.03204
572.748	5.21918
575.641	1.43435
578.534	4.76139
581.427	1.90846
584.319	0.970351
587.212	0.443704
590.105	0.095639
592.997	0.005118
595.89	0.106753
598.783	0.409365
601.675	0.793629
604.568	1.22809
607.461	0.373269
610.353	2.11768
613.246	0.683764
616.139	0.722413
619.032	0.972288
621.924	2.32242
624.817	2.63696
627.71	4.40113
630.602	6.07628
633.495	3.99811
636.388	11.1637
639.28	22.8512
642.173	16.7336
645.066	20.4916
647.958	27.1234
650.851	29.7306
653.744	34.8089
656.637	42.0355
659.529	50.5394
662.422	54.9112
665.315	61.1763
668.207	62.0801
671.1	65.7459
673.993	66.7206
676.885	63.8537
679.778	57.1407
682.671	52.4407
685.564	45.8377
688.456	37.9988
691.349	33.6507
694.242	26.5998
697.134	23.4636
700.027	23.3351
702.92	16.9809
705.812	11.1357
708.705	9.2467
711.598	8.85788
714.491	7.82903
717.383	7.8148
720.276	5.13777
723.169	3.56532
726.061	5.7754
728.954	0.911359
731.847	0.289023
734.74	2.14762
737.632	3.32525
740.525	0.372033
743.418	0.041656
746.31	0.47427
749.203	1.01396
752.096	0.355916
754.988	2.25008
757.881	0.524473
760.774	1.05694
763.667	0.292557
766.559	1.79398
769.452	0.141181
772.345	1.55449
775.237	0.175669
778.13	0.758263
781.023	1.04299
783.915	0.066738
786.808	0.590282
789.701	1.09821
792.593	0.120796
795.486	0.184005
798.379	0.223798
801.271	0.22218
804.164	1.1826
807.057	0.43003
809.95	1.46775
812.842	2.04576
815.735	1.5681
818.628	4.64534
821.52	1.98249
824.413	2.2659
827.306	1.574
830.198	2.51681
833.091	2.2569
835.984	3.80269
838.877	3.42568
841.769	7.35712
844.662	5.39061
847.555	7.17701
850.447	5.11024
853.34	5.03873
856.233	3.94205
859.125	5.54374
862.018	4.42029
864.911	8.42823
867.804	7.4023
870.696	4.83247
873.589	5.61781
876.482	6.17051
879.375	5.60965
882.267	5.69039
885.16	4.89788
888.053	4.6683
890.945	3.98908
893.838	4.21235
896.731	3.15932
899.623	0.907804
902.516	0.590052
905.409	0.348863
908.302	0.170751
911.194	2.71975
914.087	1.01883
916.98	0.219293
919.872	2.9697
922.765	0.0492
925.658	1.93833
928.55	0.153735
931.443	0.598581
934.336	1.18836
937.229	2.25893
940.121	1.13041
943.014	1.10788
945.907	1.25899
948.799	2.85917
951.692	1.61245
954.585	1.47784
957.477	0.164943
960.37	0.933111
963.263	3.46787
966.155	0.152512
969.048	0.569223
971.941	1.98507
974.834	1.30062
977.726	3.73253
980.619	3.12336
983.512	2.07792
986.404	2.48104
989.297	0.643653
992.19	3.28816
995.082	1.4601
997.975	3.76403
1000.87	3.39484
1003.76	2.29068
1006.65	3.10587
1009.55	3.12189
1012.44	1.16765
1015.33	2.67445
1018.22	2.94085
1021.12	3.64026
1024.01	1.22308
1026.9	3.07731
1029.8	4.26744
1032.69	0.331417
1035.58	1.99212
1038.47	2.29322
1041.37	1.10952
1044.26	4.402
1047.15	3.26747
1050.04	0.668484
1052.94	3.70231
1055.83	0.551703
1058.72	0.032479
1061.62	0.633459
1064.51	2.28804
1067.4	0.105671
1070.29	4.13814
1073.18	2.66959
1076.08	2.07251
1078.97	3.13259
1081.86	2.05847
1084.76	1.82821
1087.65	5.47264
1090.54	3.75719
1093.43	0.235383
1096.33	1.50507
1099.22	3.87328
1102.11	3.05376
1105.01	2.58873
1107.9	0.967023
1110.79	3.64659
1113.68	4.84145
1116.58	1.84064
1119.47	0.150914
1122.36	0.479909
1125.25	1.88819
1128.15	2.79095
1131.04	0.498932
1133.93	2.28167
1136.83	0.321066
1139.72	3.95982
1142.61	5.0526
1145.5	1.64402
1148.4	3.61888
1151.29	2.76589
1154.18	1.53713
1157.07	0.810292
1159.97	1.22647
1162.86	0.955617
1165.75	0.052904
1168.64	1.30246
1171.54	2.07564
1174.43	4.59993
1177.32	0.816885
1180.21	3.65767
1183.11	2.16913
1186	2.90462
1188.89	1.63783
1191.79	5.99151
1194.68	2.25392
1197.57	0.825246
1200.46	2.10498
1203.36	2.51304
1206.25	2.1936
1209.14	3.09384
1212.04	1.394
1214.93	2.36521
1217.82	0.027336
1220.71	2.09151
1223.61	3.97764
1226.5	1.78133
1229.39	1.79297
1232.28	1.59798
1235.18	0.78254
1238.07	0.160453
1240.96	2.83593
1243.86	3.09657
1246.75	1.24449
1249.64	0.155723
1252.53	3.10706
1255.42	1.65772
1258.32	0.255474
1261.21	6.4337
1264.1	2.87929
1267	4.74538
1269.89	4.41677
1272.78	3.35495
1275.67	1.03226
1278.57	1.79509
1281.46	0.28839
1284.35	2.13421
1287.24	4.11665
1290.14	3.863
1293.03	4.75477
1295.92	3.3917
1298.82	6.16689
1301.71	0.045373
