Measurement: Raman, 785 nm, unoriented, Raman Data Processed
Mineral: Magnetite
Rruff sample: R061111
Ideal chemistry: Fe^2+^Fe^3+^_2_O_4_
Locality: near Scotia Talc mine, Barberton Mountain, Transvaal, South Afica
Source: Michael Scott
Description: Black submetallic grains and octahedra associated with light green massive willemseite
Measured chemistry: (Fe^2+^_0.51_Ni_0.48_Co_0.01_)_Î£=1_Fe^3+^_2_O_4_; trace amounts of Al; Fe^2+^ and Fe^3+^ splitted by charge balance
Raman shift (cm-1)	intensity
206.482	0
209.375	17.1968
212.267	15.1028
215.16	4.9353
218.053	42.332
220.945	16.5496
223.838	15.0793
226.731	29.79
229.624	2.11792
232.516	3.09228
235.409	19.446
238.302	25.7932
241.194	46.6504
244.087	5.08276
246.98	2.56836
249.872	2.46265
252.765	29.7803
255.658	4.15234
258.55	13.4424
261.443	52.2244
264.336	27.521
267.228	41.6841
270.121	60.7571
273.014	29.4884
275.907	1.9845
278.799	7.91028
281.692	19.1166
284.585	30.7167
287.477	34.3151
290.37	78.105
293.263	78.1748
296.156	55.7737
299.048	94.3966
301.941	102.754
304.834	108.713
307.726	117.999
310.619	111.596
313.512	175.987
316.404	157.089
319.297	127.607
322.19	118.988
325.083	167.293
327.975	130.764
330.868	121.477
333.761	79.1643
336.653	86.0089
339.546	92.9756
342.439	67.2798
345.331	27.6991
348.224	18.655
351.117	35.3514
354.01	31.3783
356.902	12.7103
359.795	17.5266
362.688	18.6758
365.58	21.4374
368.473	15.2456
371.366	29.7875
374.258	2.9596
377.151	15.5305
380.044	5.10754
382.937	7.06079
385.829	17.3625
388.722	2.25073
391.615	4.22693
394.507	10.5199
397.4	15.8555
400.293	2.71765
403.185	2.09839
406.078	34.6698
408.971	9.67541
411.863	3.17847
414.756	26.7808
417.649	26.663
420.542	28.1605
423.434	11.7784
426.327	24.6639
429.22	52.5383
432.112	52.8082
435.005	49.7831
437.898	57.2457
440.791	55.8219
443.683	36.8517
446.576	54.4954
449.469	30.408
452.361	47.3816
455.254	87.6569
458.147	60.9725
461.039	76.3473
463.932	108.824
466.825	90.5763
469.717	93.2092
472.61	71.5243
475.503	88.5429
478.396	99.9112
481.288	51.7789
484.181	93.2156
487.074	76.8451
489.966	68.0947
492.859	38.3516
495.752	16.2635
498.644	39.1116
501.537	24.0476
504.43	15.3677
507.323	5.0741
510.215	26.5627
513.108	13.4517
516.001	49.3727
518.893	6.97644
521.786	18.2585
524.679	33.224
527.572	15.2919
530.464	4.73279
533.357	10.9416
536.25	20.4027
539.142	5.78198
542.035	40.6477
544.928	61.818
547.82	71.0126
550.713	70.6942
553.606	69.3036
556.499	46.6108
559.391	87.2358
562.284	81.7749
565.177	49.0615
568.069	9.83337
570.962	39.3289
573.855	37.567
576.747	30.4332
579.64	30.4697
582.533	38.1881
585.425	38.9082
588.318	25.6844
591.211	15.8758
594.104	10.7999
596.996	10.7418
599.889	5.84863
602.782	6.5603
605.674	2.63904
608.567	24.5021
611.46	20.6956
614.352	31.1123
617.245	41.377
620.138	52.3954
623.03	9.17602
625.923	54.6256
628.816	71.8719
631.709	74.6165
634.601	80.8158
637.494	111.907
640.387	132.879
643.279	153.368
646.172	175.363
649.065	213.73
651.957	255.587
654.85	285.532
657.743	347.675
660.636	363.812
663.528	405.537
666.421	492.483
669.314	571.231
672.206	634.121
675.099	712.995
677.992	753.342
680.885	786.589
683.777	764.25
686.67	718.743
689.563	657.936
692.455	552.896
695.348	495.212
698.241	402.843
701.133	361.41
704.026	299.159
706.919	244.509
709.812	216.169
712.704	168.7
715.597	159.706
718.49	121.961
721.382	93.1224
724.275	85.5835
727.168	66.4309
730.06	77.2876
732.953	47.4828
735.846	27.382
738.739	38.7101
741.631	33.1728
744.524	23.1298
747.417	1.25708
750.309	22.023
753.202	6.90576
756.095	30.7548
758.987	22.9412
761.88	22.4407
764.773	5.16736
767.665	9.8551
770.558	28.3225
773.451	23.0258
776.344	31.9429
779.236	13.7178
782.129	17.3311
785.022	9.09424
787.914	18.5825
790.807	26.347
793.7	7.58289
796.592	19.3246
799.485	32.2998
802.378	28.9159
805.271	25.089
808.163	13.4915
811.056	41.9049
813.949	36.312
816.841	22.1749
819.734	17.3412
822.627	15.0436
825.519	31.4565
828.412	16.328
831.305	17.7278
834.198	17.0128
837.09	13.6704
839.983	23.6645
842.876	8.13135
845.768	8.7262
848.661	29.5664
851.554	12.3419
854.447	14.7557
857.339	18.2273
860.232	32.8179
863.125	40.7185
866.017	37.141
868.91	11.1964
871.803	23.6489
874.695	15.27
877.588	5.76208
880.481	25.5538
883.373	15.7815
886.266	16.1444
889.159	7.63611
892.052	19.2756
894.944	20.2175
897.837	19.0491
900.73	17.1836
903.622	38.2256
906.515	16.774
909.408	41.3945
912.3	17.0614
915.193	14.8823
918.086	17.3852
920.979	18.5909
923.871	7.50891
926.764	1.53394
929.657	23.6879
932.549	3.93103
935.442	18.2338
938.335	22.5427
941.227	16.0164
944.12	14.074
947.013	7.38452
949.905	20.3236
952.798	48.6466
955.691	27.2225
958.584	28.5015
961.476	23.3084
964.369	39.5581
967.262	36.3824
970.154	26.8573
973.047	23.8745
975.94	13.6853
978.832	16.8021
981.725	20.0703
984.618	10.1301
987.511	25.1211
990.403	18.1547
993.296	36.2353
996.189	2.34741
999.081	10.0944
1001.97	30.6
1004.87	28.0803
1007.76	20.2013
1010.65	15.7767
1013.54	38.634
1016.44	24.9606
1019.33	9.82654
1022.22	25.4395
1025.12	2.04999
1028.01	24.4522
1030.9	4.24854
1033.79	35.0601
1036.69	56.72
1039.58	12.5198
1042.47	21.5472
1045.37	29.8135
1048.26	24.2392
1051.15	39.8653
1054.04	14.4174
1056.93	39.0322
1059.83	39.5527
1062.72	51.314
1065.61	6.90295
1068.51	25.9544
1071.4	34.6633
1074.29	31.0607
1077.18	21.3375
1080.08	15.708
1082.97	16.5903
1085.86	34.0435
1088.76	14.7247
1091.65	12.7275
1094.54	25.6989
1097.43	41.0923
1100.33	45.2626
1103.22	18.9802
1106.11	26.1555
1109	26.0094
1111.9	27.9262
1114.79	30.7417
1117.68	22.5455
1120.58	20.1468
1123.47	19.147
1126.36	18.2843
1129.25	17.9266
1132.15	29.4218
1135.04	11.6599
1137.93	31.1147
1140.82	22.9769
1143.72	20.868
1146.61	3.08661
1149.5	23.5515
1152.39	31.607
1155.29	35.8607
1158.18	48.6061
1161.07	17.9344
1163.96	50.3415
1166.86	33.2065
1169.75	20.7387
1172.64	9.75488
1175.54	19.3424
1178.43	29.6478
1181.32	29.5087
1184.21	10.2449
1187.11	9.45264
1190	9.25342
1192.89	4.59149
1195.79	16.6977
1198.68	18.8735
1201.57	13.6989
1204.46	26.1623
1207.36	39.6813
1210.25	6.47125
1213.14	31.6125
1216.03	22.1347
1218.93	13.8343
1221.82	41.1918
1224.71	49.9539
1227.61	32.8245
1230.5	34.0353
1233.39	29.1794
1236.28	20.9468
1239.17	17.186
1242.07	42.3141
1244.96	0.521118
1247.85	25.6893
1250.75	0.277283
1253.64	11.4505
1256.53	7.02985
