Measurement: Raman, 532 nm, unoriented, Raman Data Processed
Mineral: Magnesio-fluoro-hastingsite
Rruff sample: R141099
Ideal chemistry: NaCa_2_(Mg_4_Fe^3+^)(Si_6_Al_2_)O_22_F_2_
Locality: Mt. Vesuvius, Naples, Campania, Italy
Source: Ch. and H. Sch√§fer
Description: Prismatic brown crystals
Raman shift (cm-1)	intensity
208.866	0
211.759	0.002411
214.651	2.65698
217.544	4.66209
220.437	9.00914
223.329	10.9024
226.222	15.7277
229.115	17.7306
232.008	19.1223
234.9	20.7286
237.793	23.2387
240.686	22.8352
243.578	20.8004
246.471	15.9755
249.364	12.3639
252.256	7.6944
255.149	5.10597
258.042	2.65069
260.935	1.49278
263.827	0.035843
266.72	1.23032
269.613	0.685837
272.505	0.118759
275.398	0.310394
278.291	0.538002
281.183	1.5164
284.076	1.20899
286.969	1.37141
289.862	2.0545
292.754	2.46238
295.647	2.84235
298.54	3.39539
301.432	4.1768
304.325	4.54078
307.218	4.75229
310.111	4.89996
313.003	4.93898
315.896	4.20903
318.789	4.02666
321.681	4.03661
324.574	4.10169
327.467	3.74452
330.359	3.7458
333.252	3.28729
336.145	3.49355
339.038	5.1576
341.93	7.31027
344.823	5.70824
347.716	6.64172
350.608	7.74128
353.501	9.44797
356.394	10.3832
359.286	13.3207
362.179	15.0501
365.072	14.0644
367.964	13.4213
370.857	12.207
373.75	11.8031
376.643	9.91309
379.535	9.99806
382.428	7.36489
385.321	8.94308
388.213	6.79809
391.106	5.28227
393.999	4.01845
396.892	2.93456
399.784	1.70104
402.677	0.909256
405.57	0.936882
408.462	0.142494
411.355	0.475914
414.248	0.636726
417.14	1.41277
420.033	2.56212
422.926	3.99754
425.818	6.04322
428.711	7.58427
431.604	8.07014
434.497	8.21612
437.389	8.12631
440.282	5.6685
443.175	5.96464
446.067	4.31841
448.96	3.53146
451.853	2.35278
454.745	1.80697
457.638	1.95606
460.531	1.72263
463.424	1.49523
466.316	1.83527
469.209	0.305504
472.102	0.63884
474.994	0.069176
477.887	0.19458
480.78	0.469139
483.673	1.03651
486.565	2.32253
489.458	3.29977
492.351	2.91186
495.243	4.49718
498.136	6.32854
501.029	7.74785
503.921	9.55325
506.814	11.1853
509.707	13.3397
512.6	15.7824
515.492	16.4657
518.385	17.6681
521.278	18.1908
524.17	18.9274
527.063	20.2987
529.956	21.1794
532.848	22.9556
535.741	23.239
538.634	23.3104
541.527	21.7921
544.419	20.4763
547.312	20.3269
550.205	19.5627
553.097	17.9703
555.99	16.0461
558.883	15.0799
561.775	14.9904
564.668	13.4703
567.561	12.8833
570.454	11.2762
573.346	11.6668
576.239	11.8984
579.132	9.12895
582.024	8.7489
584.917	7.38558
587.81	5.76988
590.702	4.94461
593.595	4.01733
596.488	2.15934
599.381	0.764725
602.273	0.562767
605.166	0.194077
608.059	1.06293
610.951	0.18824
613.844	0.016396
616.737	0.129616
619.63	0.091965
622.522	1.05656
625.415	1.44763
628.308	2.44063
631.2	3.07744
634.093	4.05103
636.986	5.49196
639.878	6.76194
642.771	7.87537
645.664	10.1443
648.557	12.9461
651.449	15.6173
654.342	18.9505
657.235	23.3005
660.127	28.4335
663.02	34.295
665.913	39.897
668.805	43.9413
671.698	43.3906
674.591	41.4706
677.484	37.134
680.376	30.6747
683.269	24.2846
686.162	18.97
689.054	14.4222
691.947	11.3823
694.84	7.9473
697.732	5.73116
700.625	3.60429
703.518	1.7247
706.41	1.71106
709.303	0.090347
712.196	0.659317
715.089	0.928421
717.981	1.09106
720.874	0.278114
723.767	0.291351
726.659	1.27034
729.552	1.43413
732.445	1.67926
735.337	2.63946
738.23	4.45694
741.123	5.37289
744.016	7.80875
746.908	7.93452
749.801	9.96612
752.694	11.339
755.586	11.7857
758.479	13.0642
761.372	13.4918
764.264	12.3886
767.157	12.7284
770.05	12.2719
772.943	11.4576
775.835	10.0124
778.728	9.33311
781.621	9.33507
784.513	7.07638
787.406	7.2544
790.299	6.02016
793.192	5.26501
796.084	4.76621
798.977	4.04254
801.87	3.86816
804.762	4.23904
807.655	2.39387
810.548	1.75084
813.44	2.36561
816.333	2.15837
819.226	1.56619
822.119	1.02136
825.011	0.863983
827.904	0.586052
830.797	1.36252
833.689	0.94368
836.582	0.643982
839.475	1.62608
842.367	2.18878
845.26	2.6228
848.153	2.19261
851.045	2.25209
853.938	3.20524
856.831	3.89956
859.724	3.34375
862.616	2.51606
865.509	4.0139
868.402	3.50487
871.294	3.76282
874.187	3.16802
877.08	3.65745
879.972	2.5298
882.865	2.89846
885.758	1.98219
888.651	2.223
891.543	2.41904
894.436	2.71308
897.329	1.27599
900.221	1.2656
903.114	0.693733
906.007	0.086975
908.899	0.257515
911.792	0.25103
914.685	0.674454
917.578	0.524811
920.47	0.135796
923.363	0.017387
926.256	0.077942
929.148	0.159019
932.041	0.122101
934.934	1.00781
937.827	0.761536
940.719	0.532417
943.612	0.597244
946.505	0.181549
949.397	0.086647
952.29	0.147255
955.183	0.566109
958.075	2.22411
960.968	2.5378
963.861	3.87154
966.754	5.14419
969.646	2.92497
972.539	2.0984
975.432	1.75787
978.324	1.28062
981.217	0.966431
984.11	1.90133
987.002	2.82641
989.895	3.06008
992.788	4.18089
995.681	4.88959
998.573	5.84354
1001.47	6.88078
1004.36	7.50419
1007.25	7.48306
1010.14	8.65124
1013.04	8.29388
1015.93	9.03831
1018.82	9.08962
1021.72	9.28561
1024.61	9.50022
1027.5	8.84213
1030.39	9.49621
1033.29	9.94236
1036.18	9.71857
1039.07	10.0889
1041.96	9.45709
1044.86	9.41395
1047.75	8.97173
1050.64	7.71352
1053.53	7.95116
1056.43	6.83182
1059.32	5.38361
1062.21	5.92699
1065.11	5.47059
1068	4.29065
1070.89	4.15476
1073.78	3.48703
1076.68	3.10766
1079.57	3.95119
1082.46	3.66553
1085.35	3.86523
1088.25	3.29066
1091.14	2.43051
1094.03	2.70063
1096.92	2.68725
1099.82	2.24273
1102.71	1.99426
1105.6	2.54697
1108.5	1.52006
1111.39	1.18707
1114.28	1.02013
1117.17	1.01762
1120.07	0.374859
1122.96	0.252182
1125.85	0.13295
1128.74	0.655403
1131.64	0.213959
1134.53	0.636726
1137.42	0.092785
1140.32	0.407043
1143.21	0.039337
1146.1	0.944336
1148.99	0.956173
1151.89	1.18389
1154.78	1.02474
1157.67	1.34286
1160.56	1.12745
1163.46	1.20261
1166.35	1.75099
1169.24	1.13047
1172.13	1.74274
1175.03	1.84576
1177.92	1.82939
1180.81	2.17654
1183.71	2.35555
1186.6	1.93436
1189.49	1.9971
1192.38	2.16765
1195.28	1.64854
1198.17	0.401989
1201.06	1.59912
1203.95	0.854034
1206.85	1.46759
1209.74	1.01351
1212.63	1.50107
1215.53	0.948421
1218.42	1.19336
1221.31	1.06688
1224.2	1.64103
1227.1	1.03884
1229.99	1.20632
1232.88	0.573997
1235.78	0.725052
1238.67	0.93153
1241.56	0.933975
1244.45	1.00303
1247.35	1.28624
1250.24	1.5224
1253.13	0.647343
1256.02	1.06372
1258.92	1.26506
1261.81	1.23401
1264.7	0.127426
1267.59	1.57326
1270.49	0.408539
1273.38	0.249252
1276.27	0.53796
1279.16	0.556942
1282.06	0.321648
1284.95	0.451206
1287.84	0.122879
1290.74	0.605968
1293.63	0.41029
1296.52	0.552876
1299.41	0.111729
