Measurement: Raman, 785 nm, unoriented, Raman Data Processed
Mineral: Magnesio-hastingsite
Rruff sample: R070145
Ideal chemistry: NaCa_2_(Mg_4_Fe^3+^)Si_6_Al_2_O_22_(OH)_2_
Locality: Niaslo, Basha Valley, Baltistan, Northern Areas, Pakistan
Source: William W. Pinch
Description: Black cleavage fragments
Measured chemistry: (Na_0.57_K_0.43_)_Σ=1_(Ca_1.78_Na_0.22_)_Σ=2_(Mg_1.88_Fe^2+^_1.79_Mn_0.17_Fe^3+^_0.16_)_Σ=4_(Fe^3+^_0.53_Al_0.40_Ti_0.07_)_Σ=1_Si_5.99_Al_2.01_O_22_((OH)_1.79_F_0.21_)_Σ=2_; OH estimated by difference and charge balance
Raman shift (cm-1)	intensity
152.165	0
155.058	15.0045
157.95	12.6447
160.843	14.8252
163.736	6.35397
166.628	0.481018
169.521	23.4556
172.414	38.9946
175.306	39.3464
178.199	32.2642
181.092	39.8875
183.985	51.4735
186.877	44.4771
189.77	46.1066
192.663	55.5886
195.555	45.2325
198.448	45.299
201.341	49.1707
204.233	39.0873
207.126	42.1498
210.019	44.6269
212.912	40.06
215.804	42.1953
218.697	22.8564
221.59	52.9571
224.482	36.8269
227.375	40.4226
230.268	31.1578
233.161	30.1188
236.053	18.9174
238.946	4.16721
241.839	17.4545
244.731	1.66553
247.624	10.1699
250.517	11.8483
253.409	2.75113
256.302	11.6922
259.195	13.6942
262.087	5.31989
264.98	1.08566
267.873	11.5264
270.766	12.4032
273.658	19.929
276.551	30.5727
279.444	26.7961
282.336	44.0275
285.229	46.3723
288.122	36.1821
291.014	32.0307
293.907	42.6924
296.8	46.6232
299.693	24.9716
302.585	44.1257
305.478	36.3419
308.371	23.857
311.263	9.24078
314.156	3.81097
317.049	15.5284
319.942	15.2389
322.834	7.25092
325.727	3.69379
328.62	11.7857
331.512	12.8876
334.405	0.787079
337.298	15.3209
340.19	1.577
343.083	0.10257
345.976	14.1618
348.868	21.1735
351.761	14.965
354.654	28.2069
357.547	16.4316
360.439	31.3839
363.332	32.415
366.225	36.272
369.117	23.6913
372.01	41.7436
374.903	37.984
377.796	42.9864
380.688	36.4684
383.581	28.003
386.474	38.7351
389.366	32.6465
392.259	28.3469
395.152	29.8985
398.044	12.5578
400.937	9.68198
403.83	15.6647
406.723	5.33685
409.615	11.9902
412.508	17.9319
415.401	4.51828
418.293	13.0592
421.186	22.1655
424.079	14.8074
426.971	16.4891
429.864	52.5338
432.757	33.0692
435.649	21.1931
438.542	44.8741
441.435	25.6618
444.328	10.3313
447.22	22.8041
450.113	46.5933
453.006	13.7032
455.898	28.392
458.791	20.0415
461.684	36.9611
464.577	1.69748
467.469	6.23529
470.362	3.43777
473.255	5.89621
476.147	6.00717
479.04	9.19864
481.933	4.40308
484.825	12.9033
487.718	21.6246
490.611	33.8977
493.503	26.4366
496.396	54.0863
499.289	65.1879
502.182	74.677
505.074	81.1021
507.967	115.546
510.86	117.744
513.752	140.139
516.645	150.206
519.538	161.457
522.431	170.648
525.323	187.594
528.216	185.592
531.109	178.853
534.001	191.314
536.894	173.136
539.787	149.89
542.679	150.333
545.572	121.142
548.465	132.194
551.357	108.168
554.25	102.753
557.143	118.081
560.036	75.6206
562.928	87.7295
565.821	77.0864
568.714	60.8171
571.606	54.9865
574.499	41.6238
577.392	51.0598
580.284	57.7681
583.177	15.9667
586.07	9.28543
588.963	39.625
591.855	27.4814
594.748	9.71686
597.641	11.3105
600.533	8.26331
603.426	17.1892
606.319	7.35278
609.212	18.2122
612.104	19.0297
614.997	13.81
617.89	7.15372
620.782	7.5882
623.675	23.5747
626.568	8.41586
629.46	31.7476
632.353	21.5481
635.246	16.783
638.139	38.1249
641.031	20.1362
643.924	28.1754
646.817	32.2966
649.709	61.8527
652.602	37.85
655.495	32.8689
658.388	14.8092
661.28	31.593
664.173	33.458
667.066	35.9895
669.958	36.2005
672.851	37.6544
675.744	40.2692
678.636	40.2962
681.529	57.4953
684.422	39.7131
687.314	22.1933
690.207	9.93027
693.1	14.409
695.993	12.0045
698.885	19.6306
701.778	7.20538
704.671	0.766113
707.563	2.83194
710.456	16.2407
713.349	34.1664
716.241	10.7317
719.134	11.7198
722.027	10.2629
724.92	15.9336
727.812	40.7568
730.705	20.5605
733.598	21.2719
736.49	29.7278
739.383	21.208
742.276	17.8912
745.168	3.56522
748.061	11.3728
750.954	10.4148
753.847	19.9264
756.739	14.4634
759.632	16.2681
762.525	23.3204
765.417	0.011658
768.31	18.1227
771.203	9.94128
774.096	2.14188
776.988	20.6556
779.881	9.83957
782.774	13.9129
785.666	5.39712
788.559	6.9949
791.452	23.3622
794.344	26.8838
797.237	4.97623
800.13	12.48
803.023	18.3654
805.915	12.9907
808.808	1.04355
811.701	19.0051
814.593	17.8307
817.486	31.0667
820.379	10.8944
823.271	15.7369
826.164	16.4426
829.057	24.6089
831.949	22.1671
834.842	9.70279
837.735	2.21478
840.628	18.0332
843.52	0.823395
846.413	13.3227
849.306	8.99158
852.198	15.2566
855.091	6.52002
857.984	3.46433
860.876	18.4424
863.769	19.6802
866.662	19.8826
869.555	7.65396
872.447	16.3726
875.34	20.9582
878.233	11.4239
881.125	3.12326
884.018	12.745
886.911	7.49826
889.803	16.0405
892.696	11.704
895.589	15.3453
898.482	25.8984
901.374	3.97253
904.267	4.92715
907.16	20.5794
910.052	7.79096
912.945	41.6817
915.838	17.3561
918.731	25.7686
921.623	15.5691
924.516	11.8782
927.409	22.9004
930.301	30.7234
933.194	17.7818
936.087	14.0774
938.979	25.0566
941.872	8.61319
944.765	15.2127
947.658	20.6059
950.55	24.08
953.443	31.9221
956.336	18.8751
959.228	13.8117
962.121	25.4522
965.014	14.2553
967.906	11.5442
970.799	39.9023
973.692	7.99735
976.585	23.0718
979.477	13.4651
982.37	22.2113
985.263	39.878
988.155	18.9524
991.048	36.3942
993.941	35.489
996.833	25.8312
999.726	41.2558
1002.62	20.563
1005.51	18.8076
1008.4	37.2488
1011.3	24.2686
1014.19	28.8381
1017.08	42.3232
1019.98	17.9037
1022.87	22.4973
1025.76	14.2237
1028.65	11.1546
1031.55	14.9292
1034.44	0.39798
1037.33	2.8118
1040.22	25.0443
1043.12	18.2206
1046.01	2.29053
1048.9	20.8807
1051.8	4.84866
1054.69	21.8178
1057.58	7.85712
1060.47	0.527832
1063.37	19.17
1066.26	17.9242
1069.15	3.62802
1072.04	15.1227
1074.94	7.66736
1077.83	16.5133
1080.72	29.2293
1083.61	26.6713
1086.51	17.4057
1089.4	13.7717
1092.29	12.0106
1095.18	12.9608
1098.08	6.67395
1100.97	15.8641
1103.86	13.9323
1106.76	13.9933
1109.65	15.3208
1112.54	6.15517
1115.43	21.7396
1118.33	7.27416
1121.22	16.3061
1124.11	8.68083
1127.01	31.6206
1129.9	11.4635
1132.79	6.70644
1135.68	22.7863
1138.58	1.23178
1141.47	25.2221
1144.36	8.27318
1147.25	12.5013
1150.15	5.92496
1153.04	7.65396
1155.93	11.5534
1158.83	18.7987
1161.72	13.6196
1164.61	16.4934
1167.5	28.4663
1170.39	2.50783
1173.29	9.79051
1176.18	17.9504
1179.07	3.43909
1181.97	1.22519
1184.86	20.8928
1187.75	20.698
1190.64	12.6483
1193.54	4.25279
1196.43	15.699
1199.32	19.0371
1202.21	3.92999
1205.11	13.325
1208	21.7192
1210.89	27.7846
1213.79	8.57031
1216.68	20.5665
1219.57	14.3907
1222.46	8.34053
1225.36	5.58284
1228.25	24.5264
1231.14	28.7327
1234.04	10.8842
1236.93	1.66553
