Measurement: Raman, 780 nm, unoriented, Raman Data Processed
Mineral: Magnetite
Rruff sample: R060222
Ideal chemistry: Fe^2+^Fe^3+^_2_O_4_
Locality: Cerro Hua√±aquino, Potosi Department, Bolivia
Source: Rock Currier
Description: Black octahedra, the surface is hematite and the interior is magnetite
Measured chemistry: (Fe^2+^_0.95_Mg_0.05_)(Fe^3+^_0.99_Al_0.01_)_2_O_4_
Raman shift (cm-1)	intensity
150.163	0
153.056	0.367659
155.949	0.297892
158.841	0.479211
161.734	0.782503
164.627	0.665378
167.519	0.742492
170.412	0.872481
173.305	1.30859
176.198	0.6273
179.09	0.953877
181.983	1.63352
184.876	1.07831
187.768	1.3085
190.661	0.750812
193.554	1.24557
196.446	0.321343
199.339	0.462607
202.232	0.476561
205.125	0.11809
208.017	1.34184
210.91	1.24244
213.803	0.895545
216.695	0.58015
219.588	0.887211
222.481	1.59925
225.374	0.73721
228.266	0.882142
231.159	1.48652
234.052	1.65231
236.944	1.90811
239.837	1.44947
242.73	1.67051
245.622	1.97181
248.515	1.98465
251.408	1.67207
254.3	0.647211
257.193	0.598243
260.086	0.964614
262.978	0.356617
265.871	0.410465
268.764	0.495763
271.657	0.163185
274.549	1.04176
277.442	0.121321
280.335	0.253665
283.227	0.402989
286.12	0.912995
289.013	0.651207
291.906	0.859541
294.798	1.31023
297.691	1.05276
300.584	0.361438
303.476	1.56802
306.369	1.21535
309.262	0.922221
312.154	0.346031
315.047	0.78146
317.94	0.271498
320.833	0.464754
323.725	0.093174
326.618	0.556557
329.511	0.125798
332.403	1.06011
335.296	0.020265
338.189	0.073849
341.082	0.203879
343.974	0.289356
346.867	0.678238
349.76	0.506622
352.652	0.63185
355.545	0.134437
358.438	0.058473
361.33	0.252247
364.223	0.310843
367.116	0.555251
370.009	1.05981
372.901	0.576106
375.794	0.230985
378.687	0.981323
381.579	0.441687
384.472	0.849179
387.365	0.792238
390.257	0.478091
393.15	0.461544
396.043	1.72139
398.935	0.000609
401.828	0.330523
404.721	0.878243
407.614	0.424004
410.506	0.617433
413.399	0.842519
416.292	0.077366
419.184	0.671592
422.077	0.046785
424.97	0.612499
427.863	0.775793
430.755	0.117095
433.648	0.276511
436.541	0.796003
439.433	1.10696
442.326	0.424659
445.219	0.122267
448.111	0.455783
451.004	0.372725
453.897	0.811132
456.789	0.452596
459.682	0.850833
462.575	0.950994
465.467	0.156531
468.36	0.959849
471.253	0.009026
474.146	0.67029
477.038	0.588571
479.931	0.084281
482.824	0.910501
485.716	0.803688
488.609	0.996987
491.502	0.558494
494.394	1.44306
497.287	0.350844
500.18	0.034002
503.073	0.234947
505.965	0.50494
508.858	1.39505
511.751	0.897825
514.643	0.674578
517.536	0.028642
520.429	0.783565
523.322	0.539742
526.214	0.585613
529.107	1.32134
532	1.54561
534.892	0.759787
537.785	0.304907
540.678	1.47685
543.57	0.613205
546.463	0.659618
549.356	1.44984
552.249	1.77526
555.141	0.74147
558.034	1.05155
560.927	0.564686
563.819	0.065047
566.712	0.820127
569.605	0.135214
572.497	0.016248
575.39	0.376665
578.283	0.501664
581.176	0.202049
584.068	0.163623
586.961	0.150138
589.854	0.225284
592.746	0.419825
595.639	0.293878
598.532	0.271208
601.424	0.465573
604.317	0.177495
607.21	0.150409
610.102	0.04737
612.995	0.861241
615.888	0.995857
618.781	0.725999
621.673	1.46385
624.566	1.8911
627.459	2.16925
630.351	1.73257
633.244	2.28319
636.137	3.76014
639.029	4.20903
641.922	4.73022
644.815	5.86502
647.708	6.26532
650.6	6.84433
653.493	7.10157
656.386	7.66796
659.278	8.17411
662.171	8.30432
665.064	7.20352
667.957	7.83993
670.849	7.14586
673.742	6.79319
676.635	5.86751
679.527	5.00839
682.42	4.95131
685.313	3.36917
688.205	3.09829
691.098	2.33825
693.991	2.02147
696.884	1.94832
699.776	0.873802
702.669	1.00907
705.562	0.655048
708.454	0.98745
711.347	1.06065
714.24	0.74817
717.132	0.332637
720.025	0.108448
722.918	0.237057
725.811	0.127108
728.703	0.825958
731.596	0.632095
734.489	0.188109
737.381	0.551206
740.274	0.152308
743.167	0.940478
746.059	0.330461
748.952	0.113737
751.845	0.104363
754.737	0.728775
757.63	0.633564
760.523	0.115746
763.416	0.110685
766.308	0.589879
769.201	0.74471
772.094	0.651768
774.986	0.399666
777.879	0.130042
780.772	0.629867
783.665	0.477604
786.557	1.13442
789.45	0.874498
792.343	0.007453
795.235	0.646416
798.128	0.122909
801.021	0.027253
803.913	1.01997
806.806	0.483043
809.699	0.399076
812.592	0.693841
815.484	0.167672
818.377	0.786424
821.27	0.337686
824.162	0.680225
827.055	1.90207
829.948	0.824536
832.84	1.98327
835.733	1.84683
838.626	0.835921
841.519	1.27484
844.411	1.2044
847.304	1.28683
850.197	1.00388
853.089	1.1904
855.982	0.439508
858.875	1.63934
861.767	1.0335
864.66	0.761522
867.553	0.860225
870.446	0.864678
873.338	0.729654
876.231	0.595641
879.124	0.94131
882.016	0.509087
884.909	0.419375
887.802	1.23276
890.694	0.363328
893.587	0.032341
896.48	0.426402
899.372	0.254132
902.265	0.527817
905.158	0.571032
908.051	0.265799
910.943	0.426888
913.836	0.617786
916.729	0.553132
919.621	0.799147
922.514	0.492202
925.407	0.283423
928.299	0.751998
931.192	0.265241
934.085	0.891835
936.978	0.881322
939.87	0.434112
942.763	0.111375
945.656	0.040088
948.548	0.684962
951.441	0.526118
954.334	0.448064
957.226	0.290841
960.119	0.830822
963.012	0.922865
965.905	0.280397
968.797	0.531767
971.69	0.575407
974.583	0.386223
977.475	0.664267
980.368	0.174963
983.261	0.709781
986.154	0.240414
989.046	0.484977
991.939	0.132586
994.832	0.082665
997.724	0.995593
1000.62	0.575707
1003.51	0.735951
1006.4	0.33654
1009.29	1.07165
1012.19	0.80773
1015.08	0.492691
1017.97	0.174976
1020.87	0.740169
1023.76	0.637891
1026.65	0.054614
1029.54	0.729673
1032.44	0.838861
1035.33	0.27562
1038.22	0.126629
1041.12	1.2705
1044.01	0.044012
1046.9	0.083789
1049.79	0.748
1052.69	0.150469
1055.58	0.481591
1058.47	0.521311
1061.36	1.04582
1064.26	1.07997
1067.15	0.991905
1070.04	2.63888
1072.93	1.04124
1075.83	1.03957
1078.72	0.895376
1081.61	0.451725
1084.51	0.329014
1087.4	1.11678
1090.29	0.04605
1093.18	0.564497
1096.08	0.066079
1098.97	0.123084
1101.86	0.707845
1104.75	0.082058
1107.65	0.271195
1110.54	0.282411
1113.43	0.504676
1116.33	0.043138
1119.22	1.04099
1122.11	0.479195
1125	0.288737
1127.9	0.884273
1130.79	0.455547
1133.68	0.116394
1136.57	0.798919
1139.47	0.150727
1142.36	0.002338
1145.25	0.456789
1148.14	0.225747
1151.04	0.285316
1153.93	0.216349
1156.82	0.931542
1159.71	0.600821
1162.61	0.058024
1165.5	0.806101
1168.39	0.536946
1171.29	0.657777
1174.18	0.412685
1177.07	1.06793
1179.96	0.313497
1182.86	0.145256
1185.75	0.558888
1188.64	0.686445
1191.54	0.45955
1194.43	0.681253
1197.32	0.303191
1200.21	0.623301
1203.11	0.630688
1206	0.895966
1208.89	0.775916
1211.78	0.662259
1214.68	0.105711
1217.57	0.482908
1220.46	0.568337
1223.36	0.004612
1226.25	0.644927
1229.14	0.745429
1232.03	0.50284
1234.93	0.027171
1237.82	1.27963
1240.71	0.04081
1243.6	0.899254
1246.5	1.16143
1249.39	0.996682
1252.28	0.520357
1255.17	1.28732
1258.07	0.180461
1260.96	0.226504
1263.85	0.349075
1266.74	0.521966
1269.64	0.970646
1272.53	0.692324
1275.42	1.04737
1278.32	0.048242
1281.21	1.80317
1284.1	0.493511
