Measurement: Raman, 532 nm, unoriented, Raman Data Processed
Mineral: Magnesio-hastingsite
Rruff sample: R070288
Ideal chemistry: NaCa_2_(Mg_4_Fe^3+^)Si_6_Al_2_O_22_(OH)_2_
Locality: Dallas Gem Mine (Gem Mine; Benitoite Mine), New Idria District, San Benito County, California, USA
Source: Michael Scott
Description: Dark brown to black prismatic crystals frozen in albite
Measured chemistry: (Na_0.51_[box]_0.33_K_0.16_)_Σ=1_(Ca_1.75_Na_0.25_)_Σ=2_(Mg_3.02_Fe^2+^_0.61_Ti_0.37_)_Σ=4_(Fe^3+^_0.73_Al_0.27_)_Σ=1_Si_5.84_Al_2.16_O_22_(OH)_2_; (OH) estimated by difference
Raman shift (cm-1)	intensity
154.483	0
157.376	9.14514
160.268	78.5524
163.161	84.3828
166.054	39.8336
168.946	85.6432
171.839	66.5093
174.732	35.0845
177.625	109.517
180.517	83.9651
183.41	91.6029
186.303	94.6984
189.195	105.655
192.088	95.0183
194.981	39.3323
197.874	23.1615
200.766	27.0209
203.659	15.6615
206.552	2.02954
209.444	47.2162
212.337	88.0441
215.23	114.199
218.122	142.136
221.015	187.12
223.908	218.136
226.8	190.046
229.693	162.342
232.586	154.787
235.479	143.225
238.371	141.524
241.264	134.894
244.157	116.136
247.049	135.527
249.942	76.4447
252.835	72.3956
255.727	64.1467
258.62	33.7655
261.513	13.1021
264.406	26.3655
267.298	11.132
270.191	9.14783
273.084	23.0488
275.976	22.6578
278.869	9.59241
281.762	5.57165
284.655	20.9484
287.547	44.0483
290.44	34.9921
293.333	46.9667
296.225	46.2501
299.118	61.0772
302.011	35.6616
304.904	75.4943
307.796	57.0072
310.689	57.0562
313.582	73.2334
316.474	119.839
319.367	90.4769
322.26	98.0338
325.152	100.279
328.045	92.3938
330.938	54.9083
333.83	42.0415
336.723	32.8115
339.616	28.9548
342.509	66.907
345.401	56.8993
348.294	74.6411
351.187	67.6002
354.079	69.3619
356.972	110.253
359.865	87.736
362.757	99.5648
365.65	150.364
368.543	131.615
371.436	145.116
374.328	156.04
377.221	179.001
380.114	150.09
383.006	163.15
385.899	139.805
388.792	131.557
391.685	121.905
394.577	93.3931
397.47	100.65
400.363	99.4373
403.255	93.6349
406.148	104.198
409.041	122.376
411.933	105.142
414.826	129.771
417.719	147.278
420.611	133.206
423.504	107.635
426.397	92.8135
429.29	85.5664
432.182	56.2413
435.075	45.9821
437.968	18.4002
440.86	25.0572
443.753	1.52539
446.646	14.3758
449.538	2.44812
452.431	16.1706
455.324	3.59436
458.217	6.77771
461.109	0.964478
464.002	9.03723
466.895	1.17566
469.787	2.85998
472.68	18.8157
475.573	26.7801
478.466	14.3243
481.358	11.0682
484.251	25.7063
487.144	32.7521
490.036	62.7106
492.929	66.0884
495.822	157.966
498.714	227.608
501.607	244.5
504.5	294.687
507.393	345.328
510.285	401.148
513.178	411.012
516.071	430.047
518.963	517.562
521.856	515.095
524.749	560.846
527.641	573.49
530.534	578.538
533.427	550.594
536.32	606.871
539.212	612.062
542.105	643.958
544.998	630.011
547.89	645.809
550.783	661.288
553.676	679.852
556.568	677.852
559.461	670.763
562.354	634.307
565.247	646.163
568.139	568.651
571.032	508.919
573.925	403.434
576.817	369.325
579.71	275.046
582.603	193.65
585.495	153.125
588.388	102.013
591.281	58.9852
594.174	34.1403
597.066	5.71228
599.959	4.78686
602.852	10.4486
605.744	10.3473
608.637	2.82912
611.53	4.25255
614.423	13.3478
617.315	8.75403
620.208	63.5791
623.101	63.4711
625.993	90.6385
628.886	106.774
631.779	119.537
634.671	219.377
637.564	267.506
640.457	330.979
643.35	338.191
646.242	436.816
649.135	483.717
652.028	524.926
654.92	552.006
657.813	566.574
660.706	583.204
663.598	572.427
666.491	498.117
669.384	453.347
672.277	380.733
675.169	290.074
678.062	214.13
680.955	187.177
683.847	173.87
686.74	124.153
689.633	99.7517
692.525	54.9712
695.418	17.1912
698.311	26.9988
701.204	10.4707
704.096	20.2871
706.989	29.6304
709.882	1.83594
712.774	0.927246
715.667	86.2629
718.56	51.395
721.452	84.5603
724.345	77.8142
727.238	88.2903
730.131	97.7383
733.023	106.921
735.916	95.4028
738.809	113.29
741.701	101.037
744.594	148.854
747.487	143.515
750.38	142.825
753.272	193.74
756.165	205.277
759.058	224.747
761.95	231.331
764.843	258.801
767.736	303.929
770.628	325.039
773.521	402.323
776.414	391.355
779.307	457.908
782.199	529.601
785.092	575.94
787.985	583.228
790.877	636.548
793.77	563.443
796.663	589.876
799.555	619.419
802.448	566.765
805.341	523.439
808.234	490.055
811.126	468.336
814.019	461.142
816.912	380.394
819.804	339.63
822.697	316.242
825.59	261.39
828.482	227.917
831.375	187.03
834.268	121.506
837.16	101.452
840.053	53.47
842.946	28.8948
845.839	22.5288
848.731	14.4229
851.624	22.7444
854.517	26.1011
857.409	0.097412
860.302	10.0771
863.195	7.83081
866.087	33.5095
868.98	40.531
871.873	42.8572
874.766	66.9111
877.658	143.811
880.551	88.697
883.444	127.664
886.337	120.031
889.229	154.513
892.122	145.306
895.015	164.154
897.907	141.691
900.8	146.648
903.693	139.975
906.585	109.558
909.478	129.587
912.371	69.5012
915.264	89.4773
918.156	61.575
921.049	30.8623
923.942	1.60425
926.834	16.1807
929.727	5.6394
932.62	21.3933
935.512	25.9907
938.405	0.060303
941.298	4.34619
944.191	8.74707
947.083	58.7109
949.976	46.7786
952.869	32.1843
955.761	12.2957
958.654	8.36182
961.547	4.92627
964.439	37.7563
967.332	16.9983
970.225	28.4963
973.117	8.0354
976.01	1.00098
978.903	21.8276
981.796	0.017334
984.688	39.5972
987.581	2.87891
990.474	67.9522
993.366	52.9346
996.259	144.575
999.152	139.519
1002.04	183.951
1004.94	191.385
1007.83	220.64
1010.72	244.176
1013.62	258.287
1016.51	234.265
1019.4	222.243
1022.29	203.596
1025.19	230.489
1028.08	153.244
1030.97	183.931
1033.86	169.726
1036.76	146.325
1039.65	97.0884
1042.54	101.41
1045.43	85.4028
1048.33	86.5815
1051.22	102.303
1054.11	66.5122
1057.01	66.3003
1059.9	70.324
1062.79	62.5251
1065.68	43.6191
1068.58	65.6213
1071.47	30.7393
1074.36	67.1129
1077.26	46.0925
1080.15	46.881
1083.04	25.9354
1085.93	37.853
1088.83	50.3738
1091.72	37.7617
1094.61	18.1572
1097.5	14.5486
1100.4	35.0271
1103.29	54.7592
1106.18	2.60388
1109.07	18.1714
1111.97	5.58875
1114.86	4.09143
1117.75	9.46472
1120.64	5.42297
1123.54	26.6184
1126.43	19.0883
1129.32	7.69714
1132.22	59.7214
1135.11	10.5981
1138	37.7244
1140.89	9.09985
1143.79	24.0068
1146.68	59.4304
1149.57	19.2086
1152.46	3.49048
1155.36	51.6608
1158.25	33.5498
1161.14	57.3964
1164.04	7.21191
1166.93	51.8096
1169.82	43.7627
1172.71	41.9778
1175.61	51.9571
1178.5	10.7404
1181.39	69.79
1184.29	43.7742
1187.18	51.8413
1190.07	44.5632
1192.96	47.0968
1195.86	13.5502
1198.75	21.7089
1201.64	33.1178
1204.53	25.486
1207.43	46.6184
1210.32	48.2417
1213.21	42.6075
1216.1	44.05
1219	53.7164
1221.89	38.8994
1224.78	48.8993
1227.67	33.4625
1230.57	40.9988
1233.46	4.61585
1236.35	47.7285
1239.25	25.6681
1242.14	44.3946
1245.03	47.7434
1247.92	0.340576
1250.82	34.1282
1253.71	28.5746
1256.6	15.484
1259.49	7.18164
1262.39	16.5942
1265.28	51.7867
1268.17	15.1261
1271.07	5.64832
1273.96	30.3141
1276.85	60.7992
1279.74	42.3883
1282.64	20.8732
1285.53	33.5594
1288.42	35.4788
1291.32	41.4895
1294.21	38.8695
1297.1	0.575684
1299.99	38.5236
1302.88	0.0448
