Measurement: Raman, 785 nm, unoriented, Raman Data Processed
Mineral: Magnesio-hastingsite
Rruff sample: R070288
Ideal chemistry: NaCa_2_(Mg_4_Fe^3+^)Si_6_Al_2_O_22_(OH)_2_
Locality: Dallas Gem Mine (Gem Mine; Benitoite Mine), New Idria District, San Benito County, California, USA
Source: Michael Scott
Description: Dark brown to black prismatic crystals frozen in albite
Measured chemistry: (Na_0.51_[box]_0.33_K_0.16_)_Σ=1_(Ca_1.75_Na_0.25_)_Σ=2_(Mg_3.02_Fe^2+^_0.61_Ti_0.37_)_Σ=4_(Fe^3+^_0.73_Al_0.27_)_Σ=1_Si_5.84_Al_2.16_O_22_(OH)_2_; (OH) estimated by difference
Raman shift (cm-1)	intensity
155.25	0
158.142	61.105
161.035	228.549
163.928	255.795
166.821	248.862
169.713	174.775
172.606	100.876
175.499	36.8879
178.391	36.2695
181.284	39.1543
184.177	67.1633
187.069	50.4048
189.962	28.4163
192.855	20.1279
195.748	32.6514
198.64	37.2334
201.533	16.2876
204.426	81.8347
207.318	113.671
210.211	147.296
213.104	229.642
215.996	334.804
218.889	434.541
221.782	537.948
224.674	616.435
227.567	542.765
230.46	510.039
233.353	486.019
236.245	531.211
239.138	542.112
242.031	527.398
244.923	477.299
247.816	460.6
250.709	402.996
253.601	279.577
256.494	213.698
259.387	151.979
262.28	99.1943
265.172	73.2148
268.065	27.8809
270.958	26.3305
273.85	2.10205
276.743	24.3206
279.636	0.224365
282.529	0.640137
285.421	9.24951
288.314	14.2839
291.207	74.8623
294.099	59.7251
296.992	51.6592
299.885	63.7432
302.777	47.2415
305.67	52.7971
308.563	86.6648
311.455	90.053
314.348	81.1167
317.241	100.504
320.134	121.502
323.026	122.457
325.919	124.575
328.812	107.81
331.704	109.497
334.597	47.7461
337.49	62.7905
340.382	56.4089
343.275	60.4717
346.168	41.7036
349.061	54.1311
351.953	117.99
354.846	108.932
357.739	139.538
360.631	194.117
363.524	203.266
366.417	261.915
369.31	314.196
372.202	419.601
375.095	409.329
377.988	403.457
380.88	450.434
383.773	454.669
386.666	406.339
389.558	354.688
392.451	345.303
395.344	273.71
398.236	216.955
401.129	287.546
404.022	292.53
406.915	305.873
409.807	343.404
412.7	406.405
415.593	395.81
418.485	368.828
421.378	374.374
424.271	363.083
427.163	305.172
430.056	224.994
432.949	192.421
435.842	152.831
438.734	118.627
441.627	41.864
444.52	21.0002
447.412	22.6474
450.305	1.02832
453.198	20.3991
456.091	-5.79566
458.983	3.1521
461.876	36.8422
464.769	7.77136
467.661	29.4072
470.554	20.014
473.447	4.07983
476.339	16.8987
479.232	32.8252
482.125	39.6388
485.017	51.1283
487.91	87.3663
490.803	151.179
493.696	182.302
496.588	255.898
499.481	318.964
502.374	422.311
505.266	479.761
508.159	611.55
511.052	613.57
513.944	640.516
516.837	692.359
519.73	663.674
522.623	668.421
525.515	644.164
528.408	678.639
531.301	691.35
534.193	687.63
537.086	664.669
539.979	636.344
542.871	640.677
545.764	652.476
548.657	618.082
551.55	647.065
554.442	572.842
557.335	570.342
560.228	600.499
563.12	499.166
566.013	504.737
568.906	470.899
571.798	415.171
574.691	323.886
577.584	288.537
580.477	221.701
583.369	161.066
586.262	130.015
589.155	71.2133
592.047	5.45691
594.94	9.34802
597.833	9.91919
600.726	15.2576
603.618	2.14526
606.511	3.9408
609.404	4.83374
612.296	3.78735
615.189	14.7825
618.082	87.0535
620.974	107.188
623.867	143.316
626.76	215.764
629.653	244.079
632.545	340.642
635.438	417.967
638.331	586.686
641.223	673.33
644.116	795.856
647.009	923.896
649.901	1035.13
652.794	1153.11
655.687	1228.16
658.58	1278.66
661.472	1371.88
664.365	1295.85
667.258	1161.69
670.15	1042.48
673.043	852.342
675.936	667.079
678.828	567.157
681.721	426.809
684.614	403.793
687.506	335.562
690.399	255.381
693.292	174.397
696.185	131.929
699.077	45.2382
701.97	31.3674
704.863	25.5455
707.755	50.0405
710.648	6.11816
713.541	3.08801
716.433	54.2169
719.326	44.2858
722.219	38.7413
725.112	101.358
728.004	67.4675
730.897	98.6093
733.79	111.414
736.682	123.65
739.575	118.757
742.468	131.864
745.361	145.443
748.253	184.025
751.146	252.317
754.039	234.059
756.931	260.557
759.824	310.959
762.717	342.815
765.609	425.587
768.502	380.981
771.395	423.6
774.288	525.443
777.18	552.105
780.073	618.957
782.966	720.51
785.858	731.771
788.751	828.03
791.644	818.616
794.536	825.358
797.429	823.726
800.322	768.625
803.215	719.688
806.107	676.89
809	612.237
811.893	538.882
814.785	504.618
817.678	462.344
820.571	431.024
823.463	365.534
826.356	329.467
829.249	281.913
832.141	221.865
835.034	170.102
837.927	107.588
840.82	74.1161
843.712	66.0177
846.605	78.3589
849.498	4.89294
852.39	3.4906
855.283	18.3335
858.176	4.63245
861.068	29.0289
863.961	18.0542
866.854	12.4685
869.747	3.58935
872.639	20.5393
875.532	56.147
878.425	85.8613
881.317	93.896
884.21	117.787
887.103	147.702
889.995	149.95
892.888	177.733
895.781	153.917
898.674	159.483
901.566	206.756
904.459	152.19
907.352	160.183
910.244	139.696
913.137	138.311
916.03	91.4974
918.923	91.7613
921.815	38.6593
924.708	31.0117
927.601	26.6348
930.493	8.12756
933.386	12.6209
936.279	6.74683
939.171	0.334961
942.064	10.0984
944.957	28.8136
947.85	8.80554
950.742	14.5653
953.635	42.7075
956.528	53.28
959.42	54.1574
962.313	65.7858
965.206	64.1375
968.098	33.4454
970.991	62.8986
973.884	56.4313
976.777	69.7991
979.669	104.085
982.562	138.824
985.455	144.688
988.347	158.502
991.24	207.321
994.133	249.048
997.025	273.202
999.918	335.913
1002.81	369.209
1005.7	371.404
1008.6	405.599
1011.49	394.113
1014.38	416.178
1017.27	406.486
1020.17	404.486
1023.06	338.024
1025.95	320.405
1028.85	285.857
1031.74	279.661
1034.63	247.606
1037.52	205.666
1040.42	157.711
1043.31	148.978
1046.2	130.03
1049.09	106.968
1051.99	81.2356
1054.88	68.5258
1057.77	56.5088
1060.66	86.6575
1063.56	61.7601
1066.45	18.3743
1069.34	39.73
1072.24	23.8567
1075.13	40.3785
1078.02	17.9436
1080.91	3.94763
1083.81	1.8291
1086.7	3.47974
1089.59	26.8738
1092.48	9.64844
1095.38	5.42285
1098.27	4.8042
1101.16	16.0594
1104.06	11.7173
1106.95	16.0211
1109.84	15.3046
1112.73	7.53009
1115.63	8.0462
1118.52	8.67889
1121.41	17.0778
1124.3	28.9941
1127.2	17.0324
1130.09	9.88904
1132.98	16.7291
1135.88	20.3674
1138.77	31.4713
1141.66	37.7416
1144.55	30.2626
1147.45	31.0797
1150.34	46.2283
1153.23	34.7731
1156.12	36.6257
1159.02	33.1212
1161.91	45.1484
1164.8	15.2361
1167.69	28.4606
1170.59	50.9647
1173.48	36.6409
1176.37	60.1574
1179.27	41.4979
1182.16	61.1245
1185.05	39.6184
1187.94	14.743
1190.84	47.5349
1193.73	54.8394
1196.62	40.4053
1199.51	49.8074
1202.41	55.7985
1205.3	43.1384
1208.19	42.3703
1211.09	46.4394
1213.98	65.2891
1216.87	43.4362
1219.76	57.8093
1222.66	34.3094
1225.55	13.1086
1228.44	62.7237
1231.33	33.8379
1234.23	4.87347
1237.12	0.101074
