Measurement: Raman, 532 nm, unoriented, Raman Data Processed
Mineral: Magnesio-fluoro-hastingsite
Rruff sample: R141098
Ideal chemistry: NaCa_2_(Mg_4_Fe^3+^)(Si_6_Al_2_)O_22_F_2_
Locality: Uroi Hill (Arany Hill), Simeria, Hunedoara Co., Romania
Source: Ch. and H. Sch√§fer
Description: Prismatic brown to orange-brown crystals
Raman shift (cm-1)	intensity
103.765	0
107.139	5.68823
110.514	48.5791
113.889	45.3929
117.264	73.613
120.639	84.9729
124.013	84.9489
127.388	80.4252
130.763	70.155
134.138	63.896
137.513	53.0532
140.888	61.2508
144.262	52.9703
147.637	44.4896
151.012	47.1982
154.387	57.5537
157.762	79.9529
161.137	94.1473
164.511	77.8005
167.886	58.4467
171.261	57.4477
174.636	59.3435
178.011	66.7945
181.385	75.3407
184.76	54.3195
188.135	34.0441
191.51	21.1088
194.885	2.88592
198.26	1.85883
201.634	2.90161
205.009	2.15185
208.384	8.2442
211.759	22.1347
215.133	42.988
218.508	60.1026
221.883	86.5237
225.258	120.737
228.633	141.573
232.008	99.4691
235.382	86.9734
238.757	77.1063
242.132	72.0537
245.507	67.3051
248.882	57.1539
252.256	27.8981
255.631	20.2067
259.006	12.9587
262.381	3.95984
265.756	4.38367
269.131	4.79309
272.505	3.01318
275.88	5.29858
279.255	10.6622
282.63	18.9414
286.005	33.125
289.38	51.9188
292.754	73.7067
296.129	72.1958
299.504	57.4487
302.879	47.4269
306.254	40.3323
309.628	33.0078
313.003	27.8803
316.378	22.0107
319.753	22.9752
323.128	20.1995
326.502	18.8271
329.877	18.3549
333.252	14.6012
336.627	12.1717
340.002	14.3463
343.377	18.213
346.751	14.46
350.126	15.2715
353.501	16.7665
356.876	23.4023
360.251	32.3972
363.625	39.8824
367	41.9634
370.375	36.5185
373.75	30.776
377.125	28.3506
380.5	29.6183
383.874	20.9581
387.249	10.6113
390.624	1.70019
393.999	3.43945
397.374	7.0957
400.748	13.3098
404.123	31.0612
407.498	42.9034
410.873	52.5487
414.248	49.4974
417.623	29.6152
420.997	17.9054
424.372	9.86816
427.747	4.04517
431.122	6.48022
434.497	13.8444
437.872	12.715
441.246	13.6333
444.621	12.0132
447.996	0.870361
451.371	3.16101
454.745	1.25855
458.12	1.83716
461.495	4.04761
464.87	0.707886
468.245	1.9071
471.62	4.17358
474.994	0.880493
478.369	3.75073
481.744	2.86926
485.119	8.27393
488.494	17.7036
491.868	24.2367
495.243	20.7601
498.618	21.8755
501.993	22.3956
505.368	23.8008
508.743	24.0254
512.117	23.2056
515.492	25.1002
518.867	27.2602
522.242	30.6089
525.617	35.6185
528.991	36.8754
532.366	45.8419
535.741	53.9001
539.116	54.7837
542.491	51.0269
545.866	53.4885
549.24	54.5752
552.615	50.254
555.99	46.6755
559.365	45.6475
562.74	43.7225
566.115	35.1963
569.489	31.4031
572.864	32.9164
576.239	29.3367
579.614	31.9462
582.989	29.6071
586.363	25.8656
589.738	25.6419
593.113	13.779
596.488	8.96631
599.863	11.0482
603.237	5.67017
606.612	6.35791
609.987	14.7626
613.362	12.9382
616.737	14.525
620.112	3.15259
623.486	0.926636
626.861	6.29627
630.236	2.32312
633.611	0.620728
636.986	4.31262
640.361	12.4651
643.735	23.4618
647.11	36.4001
650.485	53.8373
653.86	74.1604
657.235	97.6564
660.609	125.838
663.984	161.639
667.359	194.841
670.734	215.352
674.109	226.507
677.484	189.468
680.858	139.276
684.233	84.0304
687.608	53.4547
690.983	32.2498
694.357	17.5173
697.732	9.71912
701.107	1.2251
704.482	3.34815
707.857	0.237427
711.232	4.75635
714.606	0.115234
717.981	0.064697
721.356	5.34497
724.731	7.96521
728.106	7.40564
731.481	11.2996
734.855	11.1384
738.23	13.2303
741.605	17.1216
744.98	25.8459
748.355	30.679
751.729	37.5569
755.104	39.5657
758.479	39.4804
761.854	41.9493
765.229	43.8565
768.604	45.8938
771.978	50.7571
775.353	44.1119
778.728	48.3054
782.103	45.087
785.478	38.0044
788.852	31.6774
792.227	28.4132
795.602	19.4513
798.977	12.1564
802.352	16.7466
805.726	14.8594
809.101	15.3859
812.476	10.382
815.851	9.24097
819.226	8.16809
822.601	6.38892
825.975	3.75659
829.35	1.35193
832.725	0.954834
836.1	2.06079
839.475	4.32056
842.85	6.49182
846.224	5.79382
849.599	2.25049
852.974	0.95166
856.349	3.51782
859.724	8.39722
863.098	10.5045
866.473	3.29358
869.848	12.4713
873.223	14.3151
876.598	12.8389
879.972	10.7085
883.347	10.1357
886.722	11.9992
890.097	17.058
893.472	13.4386
896.847	12.2324
900.221	9.63257
903.596	9.58484
906.971	7.64636
910.346	2.10107
913.721	2.05786
917.096	6.4657
920.47	5.47436
923.845	4.18079
927.22	4.49231
930.595	0.71106
933.97	5.41296
937.344	2.42566
940.719	5.70422
944.094	12.5884
947.469	15.3954
950.844	17.3107
954.218	14.1989
957.593	10.9334
960.968	7.74329
964.343	15.231
967.718	16.1083
971.092	5.17554
974.467	4.55652
977.842	5.00586
981.217	0.2052
984.592	5.82752
987.967	1.83948
991.341	1.93384
994.716	0.14917
998.091	2.42871
1001.47	3.17725
1004.84	0.447266
1008.22	3.14429
1011.59	1.38159
1014.97	12.0742
1018.34	10.5847
1021.72	11.5347
1025.09	14.1743
1028.46	23.1228
1031.84	19.322
1035.21	23.1921
1038.59	24.2014
1041.96	26.376
1045.34	26.4839
1048.71	24.824
1052.09	16.3296
1055.46	11.3174
1058.84	7.09106
1062.21	5.40161
1065.59	6.72559
1068.96	9.20142
1072.34	4.26782
1075.71	2.58423
1079.09	9.78711
1082.46	5.88916
1085.84	7.70728
1089.21	4.43677
1092.59	4.95239
1095.96	5.23657
1099.34	8.62549
1102.71	5.48218
1106.09	10.5386
1109.46	8.84106
1112.84	7.93115
1116.21	10.2131
1119.58	12.8271
1122.96	8.23315
1126.33	5.52417
1129.71	0.945068
1133.08	1.57397
1136.46	2.16406
1139.83	3.18848
1143.21	3.70898
1146.58	4.00269
1149.96	9.38135
1153.33	4.59668
1156.71	12.3201
1160.08	4.52588
1163.46	4.42212
1166.83	5.36963
1170.21	7.83276
1173.58	10.5615
1176.96	12.8752
1180.33	14.7844
1183.71	14.1235
1187.08	24.7339
1190.46	23.4309
1193.83	18.1455
1197.2	18.7942
1200.58	17.967
1203.95	14.063
1207.33	16.6309
1210.7	18.7336
1214.08	8.50952
1217.45	7.34058
1220.83	12.8486
1224.2	8.23584
1227.58	6.36157
1230.95	3.82471
1234.33	2.76538
1237.7	0.294434
1241.08	1.1648
1244.45	2.29663
1247.83	11.5613
1251.2	14.2661
1254.58	12.7427
1257.95	13.0418
1261.33	8.99048
1264.7	9.53052
1268.08	7.98486
1271.45	3.80981
1274.83	12.3447
1278.2	9.77539
1281.58	5.01782
1284.95	7.55347
1288.33	6.51733
1291.7	7.44775
1295.08	2.13745
1298.45	10.0464
1301.83	0
