Measurement: Raman, 785 nm, unoriented, Raman Data Processed
Mineral: Magnesio-hastingsite
Rruff sample: R040010
Ideal chemistry: NaCa_2_(Mg_4_Fe^3+^)Si_6_Al_2_O_22_(OH)_2_
Locality: Amity, New York, USA
Source: University of Arizona Mineral Museum
Description: Group of black prismatic crystals
Measured chemistry: (Na_0.50_K_0.43_[box]_0.07_)_Σ=1_(Ca_1.77_Na_0.23_)_Σ=2_(Mg_1.74_Fe_1.22_Fe^3+^_0.79_Mn_0.57_Al_0.30_Zn_0.25_Ti_0.13_)_Σ=5_(Si_5.95_Al_2.05_)_Σ=8_O_22_((OH)_1.75_F_0.22_Cl_0.03_)_Σ=2_; OH estimated by charge balance
Raman shift (cm-1)	intensity
161.062	0
163.954	5.28247
166.847	10.8855
169.74	117.034
172.632	74.7695
175.525	66.6577
178.418	53.4719
181.311	88.0674
184.203	104.384
187.096	56.9504
189.989	81.428
192.881	9.42041
195.774	47.977
198.667	9.61426
201.56	61.3721
204.452	94.4937
207.345	238.652
210.238	326.767
213.13	582.239
216.023	859.613
218.916	1248.38
221.808	1488.49
224.701	1535.17
227.594	1286.05
230.487	931.539
233.379	639.623
236.272	438.69
239.165	344.515
242.057	266.173
244.95	215.676
247.843	145.001
250.735	146.075
253.628	161.963
256.521	157.977
259.413	129.497
262.306	102.769
265.199	129.528
268.092	144.599
270.984	214.363
273.877	195.706
276.77	302.346
279.662	399.337
282.555	522.812
285.448	527.421
288.341	618.527
291.233	624.54
294.126	664.458
297.019	632.439
299.911	659.889
302.804	564.547
305.697	533.008
308.589	489.86
311.482	396.712
314.375	350.533
317.267	238.954
320.16	102.566
323.053	140.782
325.946	98.4924
328.838	68.197
331.731	39.1892
334.624	30.4851
337.516	27.3943
340.409	13.0662
343.302	10.5293
346.195	8.88135
349.087	13.6799
351.98	18.9731
354.873	48.2583
357.765	58.5859
360.658	83.2913
363.551	159.723
366.443	126.898
369.336	155.329
372.229	195.957
375.122	214.514
378.014	248.476
380.907	191.975
383.8	158.33
386.692	149.569
389.585	120.533
392.478	109.09
395.37	129.007
398.263	71.9414
401.156	55.1628
404.048	37.7241
406.941	2.9231
409.834	74.2795
412.727	30.2034
415.619	95.6352
418.512	121.561
421.405	195.728
424.297	219.406
427.19	209.364
430.083	273.148
432.976	251.461
435.868	183.043
438.761	169.939
441.654	127.983
444.546	71.6838
447.439	75.8435
450.332	74.5452
453.224	52.2373
456.117	53.4665
459.01	13.2058
461.902	16.7705
464.795	15.7715
467.688	27.2436
470.581	32.3584
473.473	11.3652
476.366	20.4443
479.259	13.4609
482.151	7.15356
485.044	34.4238
487.937	38.345
490.829	62.8332
493.722	97.9353
496.615	126.995
499.507	169.018
502.4	220.579
505.293	223.731
508.186	315.464
511.078	337.052
513.971	425.436
516.864	525.055
519.756	615.651
522.649	686.53
525.542	793.352
528.435	1000.21
531.327	984.747
534.22	990.495
537.113	1031.5
540.005	935.293
542.898	823.347
545.791	748.195
548.683	629.829
551.576	529.337
554.469	478.869
557.362	399.851
560.254	380.232
563.147	298.351
566.04	234.52
568.932	150.626
571.825	150.108
574.718	120.569
577.611	118.316
580.503	49.5857
583.396	94.0488
586.288	52.6399
589.181	17.0835
592.074	25.4109
594.967	32.385
597.859	21.9951
600.752	26.8447
603.645	23.7991
606.537	52.5725
609.43	92.0813
612.323	94.1331
615.216	161.263
618.108	190.527
621.001	330.648
623.894	457.928
626.786	576.354
629.679	659.677
632.572	785.233
635.464	890.054
638.357	1004.32
641.25	1029.96
644.143	1054.52
647.035	1115.97
649.928	1190.55
652.821	1232.24
655.713	1279.24
658.606	1338.25
661.499	1221.54
664.391	1129.37
667.284	995.562
670.177	853.375
673.069	831.852
675.962	772.861
678.855	829.151
681.748	832.377
684.64	787.565
687.533	633.977
690.426	402.332
693.318	241.434
696.211	169.289
699.104	81.7385
701.996	69.6255
704.889	9.70581
707.782	16.6748
710.675	25.0559
713.567	3.58691
716.46	6.35669
719.353	52.9841
722.245	72.8025
725.138	60.4597
728.031	67.0703
730.923	67.3716
733.816	108.291
736.709	74.9226
739.602	89.5071
742.494	115.441
745.387	39.6763
748.28	40.3818
751.172	11.3328
754.065	30.0745
756.958	19.4685
759.851	12.1916
762.743	13.8335
765.636	13.4834
768.529	34.4734
771.421	38.8286
774.314	57.3596
777.207	75.2585
780.099	63.1399
782.992	98.9744
785.885	106.71
788.778	55.5317
791.67	119.378
794.563	92.8513
797.456	135.76
800.348	88.2488
803.241	109.658
806.134	99.3643
809.026	105.441
811.919	88.9717
814.812	121.872
817.705	120.183
820.597	68.4348
823.49	74.7402
826.383	61.4065
829.275	33.0293
832.168	62.3894
835.061	23.0896
837.953	26.4395
840.846	16.4382
843.739	48.8032
846.631	52.8293
849.524	13.5225
852.417	1.54102
855.31	13.4939
858.202	17.3694
861.095	2.76001
863.988	47.1082
866.88	8.29102
869.773	11.6519
872.666	61.3711
875.558	66.2434
878.451	52.7224
881.344	39.791
884.237	45.1887
887.129	29.7646
890.022	65.8599
892.915	60.7437
895.807	103.412
898.7	94.9707
901.593	97.5579
904.486	164.916
907.378	142.007
910.271	203.128
913.164	230.909
916.056	265.714
918.949	192.651
921.842	145.029
924.734	163.548
927.627	126.315
930.52	96.209
933.413	75.4985
936.305	48.1553
939.198	38.6465
942.091	20.8977
944.983	25.9717
947.876	3.69116
950.769	1.57886
953.661	17.2068
956.554	17.9175
959.447	41.2493
962.34	7.45117
965.232	0.858887
968.125	12.2451
971.018	22.1733
973.91	32.9663
976.803	45.1704
979.696	45.5908
982.588	58.5361
985.481	25.0122
988.374	58.1108
991.266	56.5408
994.159	70.8323
997.052	193.005
999.945	228.814
1002.84	307.725
1005.73	338.358
1008.62	386.438
1011.51	417.3
1014.41	443.173
1017.3	425.722
1020.19	394.331
1023.09	346.206
1025.98	322.65
1028.87	296.972
1031.76	243.805
1034.66	177.68
1037.55	186.781
1040.44	162.225
1043.34	91.2649
1046.23	103.597
1049.12	86.261
1052.01	78.7651
1054.91	66.1182
1057.8	57.0066
1060.69	25.9789
1063.58	73.5592
1066.48	25.4263
1069.37	51.8729
1072.26	24.1516
1075.15	14.3307
1078.05	26.0824
1080.94	3.05518
1083.83	41.3931
1086.73	31.8547
1089.62	19.495
1092.51	58.1163
1095.4	38.6113
1098.3	4.8988
1101.19	27.41
1104.08	31.1965
1106.97	13.2773
1109.87	0.213257
1112.76	26.0924
1115.65	7.38843
1118.55	16.3412
1121.44	6.34131
1124.33	41.3953
1127.22	38.6112
1130.12	19.4133
1133.01	42.272
1135.9	13.9748
1138.79	17.7698
1141.69	35.7036
1144.58	16.2988
1147.47	8.36646
1150.37	47.6578
1153.26	34.0532
1156.15	56.1103
1159.04	60.4269
1161.94	20.25
1164.83	50.6909
1167.72	73.5389
1170.61	88.4858
1173.51	57.2647
1176.4	57.2421
1179.29	52.8901
1182.18	67.8569
1185.08	71.9163
1187.97	81.9816
1190.86	56.2031
1193.76	51.0844
1196.65	71.2789
1199.54	91.6764
1202.43	45.4546
1205.33	20.8275
1208.22	24.5016
1211.11	55.4778
1214	77.7295
1216.9	49.2865
1219.79	51.4382
1222.68	46.1229
1225.58	43.7557
1228.47	85.4545
1231.36	64.2479
1234.25	15.8639
1237.15	6.30005
1240.04	2.99072
1242.93	69.0239
1245.82	60.9031
1248.72	31.0056
1251.61	42.8079
1254.5	60.4463
1257.39	32.317
1260.29	8.42456
