Measurement: Raman, 532 nm, unoriented, Raman Data Processed
Mineral: Magnesio-hastingsite
Rruff sample: R070145
Ideal chemistry: NaCa_2_(Mg_4_Fe^3+^)Si_6_Al_2_O_22_(OH)_2_
Locality: Niaslo, Basha Valley, Baltistan, Northern Areas, Pakistan
Source: William W. Pinch
Description: Black cleavage fragments
Measured chemistry: (Na_0.57_K_0.43_)_Σ=1_(Ca_1.78_Na_0.22_)_Σ=2_(Mg_1.88_Fe^2+^_1.79_Mn_0.17_Fe^3+^_0.16_)_Σ=4_(Fe^3+^_0.53_Al_0.40_Ti_0.07_)_Σ=1_Si_5.99_Al_2.01_O_22_((OH)_1.79_F_0.21_)_Σ=2_; OH estimated by difference and charge balance
Raman shift (cm-1)	intensity
147.289	0
150.664	44.6156
154.038	77.7009
157.413	37.3077
160.788	30.019
164.163	12.7522
167.538	26.1133
170.913	18.5496
174.287	40.152
177.662	40.3471
181.037	26.6559
184.412	40.1474
187.787	21.6631
191.161	15.2229
194.536	2.53601
197.911	16.6653
201.286	9.04047
204.661	27.1696
208.036	22.0271
211.41	49.3864
214.785	63.2852
218.16	83.3763
221.535	86.8699
224.91	89.6229
228.284	70.9585
231.659	61.8839
235.034	60.6994
238.409	62.5421
241.784	38.3985
245.159	23.4993
248.533	37.6273
251.908	3.54916
255.283	21.5742
258.658	3.77219
262.033	8.42099
265.407	2.17911
268.782	12.2651
272.157	0.36615
275.532	9.52179
278.907	25.2211
282.281	58.2106
285.656	58.3813
289.031	56.7343
292.406	61.1056
295.781	47.9619
299.156	39.4096
302.53	27.8699
305.905	16.5387
309.28	12.9854
312.655	5.75671
316.03	7.50461
319.404	23.3958
322.779	13.6981
326.154	1.06747
329.529	0.53595
332.904	20.8304
336.279	6.10892
339.653	12.2675
343.028	8.33929
346.403	20.8702
349.778	14.0718
353.152	36.8074
356.527	53.3882
359.902	35.7353
363.277	37.8921
366.652	34.674
370.027	32.619
373.401	43.4201
376.776	13.1725
380.151	32.5741
383.526	15.6886
386.901	11.8607
390.276	6.6243
393.65	2.42853
397.025	6.50854
400.4	11.5485
403.775	3.31839
407.15	32.8123
410.524	25.5264
413.899	23.8191
417.274	32.0968
420.649	15.7861
424.024	50.8201
427.398	33.3388
430.773	52.5252
434.148	48.5642
437.523	55.5729
440.898	27.8997
444.272	40.6245
447.647	27.2766
451.022	4.10522
454.397	4.36456
457.772	9.70956
461.147	1.42188
464.521	23.1492
467.896	8.22443
471.271	16.8323
474.646	21.1949
478.021	1.96472
481.396	17.6385
484.77	35.7737
488.145	36.97
491.52	48.38
494.895	55.7828
498.269	93.9287
501.644	94.9997
505.019	102.83
508.394	112.797
511.769	133.752
515.144	110.276
518.518	142.714
521.893	167.232
525.268	167.174
528.643	193.691
532.018	178.775
535.393	187.705
538.767	164.972
542.142	135.049
545.517	132.813
548.892	138.199
552.266	134.212
555.641	112.083
559.016	87.4897
562.391	80.4134
565.766	58.0955
569.141	73.7896
572.515	50.0387
575.89	47.1636
579.265	36.2149
582.64	9.52319
586.015	20.2463
589.389	23.2077
592.764	8.61165
596.139	13.8925
599.514	0.119812
602.889	6.5538
606.264	2.60222
609.638	9.97888
613.013	9.23543
616.388	9.0139
619.763	25.4455
623.138	30.5972
626.513	32.307
629.887	42.1112
633.262	63.5018
636.637	70.0616
640.012	85.4461
643.386	122.586
646.761	97.4437
650.136	106.698
653.511	123.099
656.886	118.74
660.261	118.903
663.635	103.124
667.01	97.159
670.385	75.3859
673.76	70.6215
677.135	67.0773
680.51	68.484
683.884	63.3707
687.259	40.5543
690.634	10.3385
694.009	18.8463
697.384	1.11732
700.758	15.5176
704.133	7.8885
707.508	9.04381
710.883	16.3165
714.258	13.0613
717.632	28.2917
721.007	30.0624
724.382	41.9474
727.757	66.1763
731.132	59.7351
734.506	67.0825
737.881	81.5307
741.256	53.7178
744.631	42.141
748.006	47.5082
751.381	22.4696
754.755	22.5252
758.13	29.096
761.505	25.1658
764.88	35.1019
768.255	53.5023
771.63	33.1424
775.004	50.0773
778.379	54.1205
781.754	49.5833
785.129	57.4364
788.504	49.0765
791.878	41.3946
795.253	54.948
798.628	55.7002
802.003	27.6189
805.378	24.2629
808.752	5.66835
812.127	25.538
815.502	17.1183
818.877	0.61937
822.252	14.637
825.626	1.36296
829.001	4.29045
832.376	2.31258
835.751	5.1461
839.126	0.125351
842.5	4.10721
845.875	9.99532
849.25	4.10236
852.625	0.096436
856	15.8528
859.375	2.81883
862.749	7.44942
866.124	16.6602
869.499	10.2462
872.874	14.6333
876.249	16.2052
879.624	19.6215
882.998	9.19251
886.373	4.702
889.748	23.5311
893.123	14.4556
896.498	38.5483
899.872	24.5117
903.247	5.09094
906.622	10.6336
909.997	23.9693
913.372	22.0895
916.746	44.9066
920.121	40.4594
923.496	55.0369
926.871	12.8264
930.246	51.3543
933.62	51.2908
936.995	39.893
940.37	45.408
943.745	52.2983
947.12	25.1307
950.495	38.9851
953.869	55.4689
957.244	29.2348
960.619	40.1059
963.994	5.01739
967.369	0.077271
970.744	9.13068
974.118	36.644
977.493	10.7303
980.868	11.6394
984.243	4.77942
987.618	3.34152
990.992	17.4666
994.367	32.6562
997.742	10.6134
1001.12	49.2761
1004.49	53.7725
1007.87	39.6061
1011.24	54.3376
1014.62	52.8177
1017.99	51.2996
1021.37	51.718
1024.74	34.5015
1028.12	39.624
1031.49	19.2944
1034.87	44.716
1038.24	1.00375
1041.62	22.4939
1044.99	10.2454
1048.36	13.3799
1051.74	13.8594
1055.11	26.8578
1058.49	15.247
1061.86	3.53108
1065.24	10.1737
1068.61	17.7315
1071.99	6.06836
1075.36	31.562
1078.74	24.1696
1082.11	31.3698
1085.49	27.0899
1088.86	25.7605
1092.24	7.23254
1095.61	21.8514
1098.99	43.2616
1102.36	19.9377
1105.74	4.48466
1109.11	18.1713
1112.49	5.14235
1115.86	14.5601
1119.23	13.1994
1122.61	14.3077
1125.98	4.25464
1129.36	15.9049
1132.73	6.51546
1136.11	3.9792
1139.48	11.6786
1142.86	0.649734
1146.23	10.9616
1149.61	8.15685
1152.98	29.5209
1156.36	1.80553
1159.73	15.7138
1163.11	20.3573
1166.48	9.06332
1169.86	19.6293
1173.23	25.5688
1176.61	5.32986
1179.98	13.1738
1183.36	19.791
1186.73	8.25066
1190.11	12.1918
1193.48	26.5287
1196.86	15.122
1200.23	20.7677
1203.61	3.27873
1206.98	17.3536
1210.36	21.3356
1213.73	19.0264
1217.11	0.629166
1220.48	4.68724
1223.85	19.5904
1227.23	6.43375
1230.6	7.00774
1233.98	23.2982
1237.35	26.1697
1240.73	18.3144
1244.1	14.5219
1247.48	20.7487
1250.85	21.8397
1254.23	5.58626
1257.6	6.99626
1260.98	25.8852
1264.35	14.8024
1267.73	10.2157
1271.1	22.8874
1274.48	26.9092
1277.85	16.733
1281.23	20.2877
1284.6	21.2726
1287.98	4.92574
1291.35	7.97203
1294.73	10.9002
1298.1	1.36929
1301.47	30.0704
1304.85	9.68582
1308.22	18.5074
1311.6	22.6365
1314.97	0.736191
