Measurement: Raman, 780 nm, unoriented, Raman Data Processed
Mineral: Magnesio-fluoro-hastingsite
Rruff sample: R141099
Ideal chemistry: NaCa_2_(Mg_4_Fe^3+^)(Si_6_Al_2_)O_22_F_2_
Locality: Mt. Vesuvius, Naples, Campania, Italy
Source: Ch. and H. Sch√§fer
Description: Prismatic brown crystals
Raman shift (cm-1)	intensity
154.235	0
157.128	1.69963
160.02	4.19975
162.913	5.07282
165.806	3.26593
168.698	2.41277
171.591	2.60118
174.484	4.53102
177.377	9.41071
180.269	12.7507
183.162	16.9704
186.055	15.7359
188.947	12.7943
191.84	8.35634
194.733	3.76476
197.625	1.86884
200.518	0.074203
203.411	0.340347
206.304	0.870255
209.196	1.67543
212.089	5.88977
214.982	7.75207
217.874	13.5047
220.767	18.59
223.66	22.5084
226.553	25.2734
229.445	27.3884
232.338	30.6102
235.231	30.9043
238.123	32.9271
241.016	32.962
243.909	29.5045
246.801	25.1791
249.694	19.9447
252.587	15.7837
255.48	8.76308
258.372	5.76286
261.265	2.65495
264.158	0.965759
267.05	1.3726
269.943	0.971268
272.836	3.8295
275.728	2.4131
278.621	0.771362
281.514	0.104431
284.406	1.33481
287.299	4.02628
290.192	8.0755
293.085	10.5022
295.977	15.2021
298.87	20.2297
301.763	24.3654
304.655	28.4552
307.548	34.4315
310.441	39.0472
313.334	45.6056
316.226	51.3412
319.119	57.0172
322.012	63.9559
324.904	68.5766
327.797	73.9192
330.69	75.7455
333.582	76.4446
336.475	77.8806
339.368	78.7806
342.26	80.1474
345.153	80.9605
348.046	83.6394
350.938	78.9567
353.831	79.675
356.724	77.6463
359.617	73.77
362.509	69.3473
365.402	63.1856
368.295	56.5483
371.187	49.5017
374.08	42.6587
376.973	34.3173
379.865	29.169
382.758	23.9466
385.651	20.0238
388.544	14.1106
391.436	11.5197
394.329	8.90768
397.222	6.51649
400.114	3.61272
403.007	3.00558
405.9	2.38496
408.793	2.69952
411.685	3.21301
414.578	3.5757
417.471	5.52304
420.363	8.43648
423.256	8.96886
426.149	15.7949
429.041	15.419
431.934	13.2591
434.827	13.0564
437.719	11.9086
440.612	10.1755
443.505	16.947
446.398	7.95816
449.29	5.75519
452.183	6.34486
455.076	5.14647
457.968	3.68584
460.861	3.02502
463.754	0.94635
466.647	1.41454
469.539	1.07806
472.432	0.107285
475.325	2.55884
478.217	1.43224
481.11	0.600342
484.003	1.0294
486.895	1.19411
489.788	1.13695
492.681	0.389694
495.573	1.9662
498.466	2.09933
501.359	5.46513
504.252	8.59563
507.144	9.09239
510.037	12.3943
512.93	14.1522
515.822	16.071
518.715	16.8086
521.608	19.0951
524.5	19.803
527.393	21.35
530.286	23.8391
533.178	27.7163
536.071	23.8091
538.964	24.4914
541.857	23.4814
544.749	23.4276
547.642	22.7046
550.535	21.7605
553.427	21.025
556.32	19.721
559.213	18.4458
562.106	17.1095
564.998	17.1245
567.891	15.0885
570.784	14.5447
573.676	12.0049
576.569	11.2913
579.462	8.51326
582.354	6.3065
585.247	5.00169
588.14	2.37631
591.033	1.73029
593.925	0.018723
596.818	0.738861
599.711	0.32872
602.603	0.831665
605.496	0.144196
608.389	1.3802
611.281	2.0052
614.174	2.33089
617.067	3.20608
619.96	4.08478
622.852	6.40874
625.745	6.17012
628.638	7.83231
631.53	8.91829
634.423	11.8635
637.316	12.7926
640.208	15.428
643.101	15.1096
645.994	16.6684
648.886	19.9344
651.779	21.707
654.672	24.0885
657.564	28.8133
660.457	31.6652
663.35	35.3729
666.243	37.2693
669.135	40.721
672.028	41.1564
674.921	37.4032
677.813	32.5952
680.706	26.7836
683.599	20.9028
686.491	16.1486
689.384	13.9656
692.277	9.67857
695.17	7.90675
698.062	6.4404
700.955	3.93709
703.848	1.46735
706.74	1.37834
709.633	1.02411
712.526	0.627563
715.418	0.60791
718.311	0.076233
721.204	0.002594
724.097	0.329422
726.989	1.34265
729.882	1.00642
732.775	0.91095
735.667	1.86079
738.56	2.43155
741.453	3.88039
744.346	4.50079
747.238	4.58405
750.131	5.03635
753.024	6.41231
755.916	7.86404
758.809	7.5705
761.702	7.98027
764.594	7.88357
767.487	7.30872
770.38	8.26806
773.273	8.21776
776.165	7.93716
779.058	7.76841
781.951	8.14668
784.843	8.33771
787.736	8.08478
790.629	8.96606
793.521	8.34205
796.414	8.00829
799.307	7.38577
802.199	6.30203
805.092	6.57506
807.985	5.61732
810.878	5.56551
813.77	5.30357
816.663	5.35376
819.556	5.39698
822.448	5.00628
825.341	4.84506
828.234	4.62373
831.126	5.40923
834.019	4.08934
836.912	4.69274
839.804	4.94021
842.697	4.31811
845.59	4.35947
848.483	3.77919
851.375	3.4934
854.268	2.96374
857.161	1.93938
860.053	1.48546
862.946	1.42885
865.839	1.16083
868.731	0.233704
871.624	1.15662
874.517	0.557869
877.409	0.315659
880.302	0.145332
883.195	1.52944
886.088	0.960785
888.98	0.253235
891.873	0.467598
894.766	0.054703
897.658	0.485733
900.551	0.401047
903.444	0.278351
906.337	0.54763
909.229	0.560867
912.122	0.041618
915.015	1.16129
917.907	0.740807
920.8	0.465652
923.693	1.51237
926.585	1.57502
929.478	1.33738
932.371	2.30289
935.264	1.57488
938.156	2.72655
941.049	2.65939
943.942	2.63399
946.834	2.02604
949.727	2.42022
952.62	2.26057
955.512	2.20472
958.405	2.44746
961.298	3.63669
964.191	6.4966
967.083	6.6964
969.976	2.93891
972.869	1.09016
975.761	4.22588
978.654	1.06657
981.547	1.37351
984.439	0.827393
987.332	0.417
990.225	0.983459
993.117	1.06635
996.01	1.27002
998.903	1.25684
1001.8	1.53417
1004.69	1.68379
1007.58	1.13555
1010.47	2.04126
1013.37	1.75466
1016.26	1.09344
1019.15	0.237938
1022.04	0.610931
1024.94	0.913467
1027.83	2.74368
1030.72	0.605087
1033.62	0.034897
1036.51	3.49873
1039.4	0.185753
1042.29	0.207428
1045.19	0.001862
1048.08	0.725433
1050.97	1.28459
1053.86	2.01604
1056.76	0.47776
1059.65	0.67009
1062.54	1.04107
1065.43	0.359848
1068.33	0.461296
1071.22	0.744125
1074.11	0.19532
1077.01	0.057304
1079.9	0.483879
1082.79	0.978455
1085.68	2.28068
1088.58	2.49934
1091.47	3.271
1094.36	4.21503
1097.26	5.47279
1100.15	6.12225
1103.04	6.46903
1105.93	7.97713
1108.83	9.06905
1111.72	10.533
1114.61	10.186
1117.5	11.6674
1120.4	13.4033
1123.29	16.8863
1126.18	15.7073
1129.07	17.778
1131.97	18.8431
1134.86	20.6403
1137.75	21.3704
1140.64	22.9665
1143.54	25.1777
1146.43	25.937
1149.32	27.0677
1152.22	28.8248
1155.11	31.1235
1158	31.6196
1160.89	33.2275
1163.79	37.2691
1166.68	40.0224
1169.57	46.2882
1172.46	56.191
1175.36	65.4514
1178.25	76.9115
1181.14	86.1848
1184.04	92.6002
1186.93	99.1642
1189.82	103.742
1192.71	106.464
1195.61	111.407
1198.5	107.274
1201.39	106.636
1204.28	101.018
1207.18	97.027
1210.07	90.6612
1212.96	80.438
1215.86	68.7456
1218.75	54.9409
1221.64	33.1418
1224.53	16.4545
1227.43	5.94318
1230.32	8.05414
1233.21	8.61603
1236.1	3.95825
1239	1.25818
1241.89	14.7294
1244.78	34.029
1247.67	58.919
1250.57	92.2817
1253.46	126.71
1256.35	159.773
1259.25	169.285
1262.14	164.844
1265.03	161.583
1267.92	157.462
1270.82	139.853
1273.71	114.824
1276.6	80.6169
1279.49	48.4779
1282.39	10.5853
