Measurement: Raman, 532 nm, unoriented, Raman Data Processed
Mineral: Magnesiohulsite
Rruff sample: R070223
Ideal chemistry: Mg_2_Fe^3+^O_2_(BO_3_)
Locality: Iten'yurginskoye Deposit, Chukotka (Tchukotka) Okrug, Chukot Peninsula, Far-Eastern Region, Russia
Source: Michael Scott
Description: Radiating black fibrous crystals
Raman shift (cm-1)	intensity
171.839	0
174.732	11.2087
177.625	26.9077
180.517	23.572
183.41	116.826
186.303	138.154
189.195	178.46
192.088	197.62
194.981	185.858
197.874	172.552
200.766	135.758
203.659	136.238
206.552	150.314
209.444	201.921
212.337	228.352
215.23	340.61
218.122	380.906
221.015	449.363
223.908	447.558
226.8	346.165
229.693	270.584
232.586	181.247
235.479	156.638
238.371	153.285
241.264	155.887
244.157	104.259
247.049	47.0442
249.942	42.0137
252.835	46.1562
255.727	11.8123
258.62	0.367432
261.513	20.8706
264.406	34.0901
267.298	11.7754
270.191	33.7878
273.084	12.6411
275.976	25.4453
278.869	12.4592
281.762	4.4021
284.655	8.30151
287.547	50.1201
290.44	47.2302
293.333	93.9863
296.225	131.778
299.118	128.096
302.011	120.265
304.904	123.962
307.796	91.1455
310.689	73.8684
313.582	96.1384
316.474	45.2022
319.367	31.9424
322.26	41.4751
325.152	57.5066
328.045	84.6387
330.938	66.8164
333.83	110.832
336.723	131.136
339.616	100.177
342.509	71.0613
345.401	93.5806
348.294	40.4656
351.187	41.7539
354.079	11.2727
356.972	17.6826
359.865	15.4692
362.757	22.4414
365.65	9.73584
368.543	11.5666
371.436	13.4412
374.328	15.2959
377.221	7.29419
380.114	31.1533
383.006	19.6384
385.899	41.9917
388.792	58.3101
391.685	55.3916
394.577	102.273
397.47	121.448
400.363	150.812
403.255	198.974
406.148	231.732
409.041	240.481
411.933	219.626
414.826	175.999
417.719	193.347
420.611	153.988
423.504	126.332
426.397	149.682
429.29	134.878
432.182	108.588
435.075	111.501
437.968	84.7637
440.86	59.1067
443.753	132.58
446.646	92.7
449.538	146.227
452.431	103.114
455.324	164.427
458.217	164.542
461.109	165.166
464.002	155.033
466.895	175.62
469.787	127.476
472.68	84.6851
475.573	78.1763
478.466	62.6824
481.358	52.2495
484.251	72.521
487.144	49.2004
490.036	33.8738
492.929	5.3374
495.822	51.3281
498.714	49.8669
501.607	2.94873
504.5	37.6455
507.393	45.8657
510.285	31.3025
513.178	89.1475
516.071	69.3247
518.963	43.5635
521.856	71.8435
524.749	88.5845
527.641	99.6887
530.534	97.4299
533.427	70.2639
536.32	84.2881
539.212	92.7441
542.105	58.1282
544.998	76.2527
547.89	48.7239
550.783	22.627
553.676	35.5039
556.568	8.74756
559.461	13.8931
562.354	6.10864
565.247	15.2654
568.139	3.7041
571.032	34.197
573.925	24.1858
576.817	41.2944
579.71	1.89453
582.603	55.8577
585.495	35.9937
588.388	58.1333
591.281	46.3403
594.174	5.34253
597.066	73.3616
599.959	68.2275
602.852	13.294
605.744	27.2722
608.637	46.686
611.53	41.9578
614.423	78.0818
617.315	118.196
620.208	121.201
623.101	121.029
625.993	136.757
628.886	188.712
631.779	185.522
634.671	192.529
637.564	196.474
640.457	223.545
643.35	277.812
646.242	252.433
649.135	309.935
652.028	314.078
654.92	346.436
657.813	441.32
660.706	377.854
663.598	387.188
666.491	340.789
669.384	335.876
672.277	310.877
675.169	242.585
678.062	200.857
680.955	168.251
683.847	136.299
686.74	98.9763
689.633	70.2866
692.525	32.9377
695.418	15.7315
698.311	48.6167
701.204	17.1545
704.096	10.9109
706.989	27.3589
709.882	13.927
712.774	18.928
715.667	17.186
718.56	55.354
721.452	32.3582
724.345	12.3904
727.238	11.9463
730.131	14.957
733.023	1.68042
735.916	21.8215
738.809	5.89917
741.701	14.4495
744.594	53.8396
747.487	49.7783
750.38	50.1016
753.272	69.5523
756.165	95.062
759.058	65.104
761.95	97.5989
764.843	43.6951
767.736	27.7178
770.628	13.332
773.521	52.2866
776.414	17.198
779.307	45.721
782.199	56.9582
785.092	20.5647
787.985	55.7053
790.877	36.9829
793.77	29.7314
796.663	33.6938
799.555	16.2739
802.448	41.3603
805.341	61.9319
808.234	22.7273
811.126	12.2363
814.019	4.89624
816.912	29.5989
819.804	79.5352
822.697	21.77
825.59	53.2312
828.482	9.39404
831.375	19.0146
834.268	26.1006
837.16	3.14185
840.053	22.6577
842.946	40.5862
845.839	29.5764
848.731	28.7341
851.624	9.21289
854.517	27.0855
857.409	37.846
860.302	61.6977
863.195	36.6985
866.087	13.5252
868.98	15.1936
871.873	1.8606
874.766	5.02539
877.658	33.176
880.551	58.0227
883.444	26.8611
886.337	42.2651
889.229	30.4348
892.122	16.7073
895.015	11.77
897.907	8.3855
900.8	16.7366
903.693	3.18701
906.585	59.426
909.478	49.6189
912.371	64.3025
915.264	60.502
918.156	44.2097
921.049	38.2234
923.942	50.5422
926.834	42.6773
929.727	31.3777
932.62	13.9304
935.512	25.3015
938.405	12.5566
941.298	61.8508
944.191	77.5188
947.083	120.314
949.976	102.71
952.869	88.5398
955.761	60.0164
958.654	61.3999
961.547	70.8611
964.439	52.5813
967.332	2.79688
970.225	18.6914
973.117	34.1172
976.01	6.55151
978.903	30.8706
981.796	32.8262
984.688	33.6575
987.581	10.0925
990.474	20.8352
993.366	3.7063
996.259	22.5056
999.152	36.479
1002.04	15.4697
1004.94	17.9385
1007.83	33.481
1010.72	0.121826
1013.62	1.74487
1016.51	4.0603
1019.4	0.712402
1022.29	20.6939
1025.19	3.84033
1028.08	5.57715
1030.97	11.9861
1033.86	31.5942
1036.76	37.3415
1039.65	0.263672
1042.54	33.1868
1045.43	3.75952
1048.33	35.8035
1051.22	21.0708
1054.11	22.8948
1057.01	29.6367
1059.9	8.4751
1062.79	26.6946
1065.68	27.0877
1068.58	45.4573
1071.47	16.1912
1074.36	38.5418
1077.26	61.4204
1080.15	82.5237
1083.04	54.8367
1085.93	25.0017
1088.83	62.6245
1091.72	37.1462
1094.61	56.7781
1097.5	19.3945
1100.4	69.1199
1103.29	26.5339
1106.18	47.4573
1109.07	65.8186
1111.97	43.8897
1114.86	28.2725
1117.75	39.2888
1120.64	56.1904
1123.54	12.5737
1126.43	34.4744
1129.32	33.8362
1132.22	43.0813
1135.11	10.7732
1138	6.7522
1140.89	48.6824
1143.79	60.0427
1146.68	35.7993
1149.57	9.61694
1152.46	31.0442
1155.36	42.4758
1158.25	52.0369
1161.14	25.5759
1164.04	9.72046
1166.93	14.3284
1169.82	34.4531
1172.71	29.2378
1175.61	2.65454
1178.5	7.69678
1181.39	15.125
1184.29	12.1685
1187.18	31.8303
1190.07	70.0254
1192.96	16.0064
1195.86	43.1243
1198.75	39.7231
1201.64	44.471
1204.53	76.2263
1207.43	101.758
1210.32	50.9949
1213.21	87.5349
1216.1	23.3301
1219	105.063
1221.89	57.0374
1224.78	29.8286
1227.67	59.1243
1230.57	22.0388
1233.46	35.4456
1236.35	72.1084
1239.25	51.6045
1242.14	42.1492
1245.03	2.60815
1247.92	28.5496
1250.82	19.9382
1253.71	2.69336
1256.6	51.3381
1259.49	41.4495
1262.39	29.4956
1265.28	75.937
1268.17	28.2417
1271.07	48.2732
1273.96	60.7671
1276.85	29.0906
1279.74	29.6467
1282.64	66.5068
1285.53	73.9575
1288.42	31.3162
1291.32	56.0874
1294.21	61.8254
1297.1	69.6067
1299.99	48.177
1302.88	3.47998
1305.78	5.67261
