Measurement: Raman, 532 nm, unoriented, Raman Data Processed
Mineral: Magnesio-hastingsite
Rruff sample: R040010
Ideal chemistry: NaCa_2_(Mg_4_Fe^3+^)Si_6_Al_2_O_22_(OH)_2_
Locality: Amity, New York, USA
Source: University of Arizona Mineral Museum
Description: Group of black prismatic crystals
Measured chemistry: (Na_0.50_K_0.43_[box]_0.07_)_Σ=1_(Ca_1.77_Na_0.23_)_Σ=2_(Mg_1.74_Fe_1.22_Fe^3+^_0.79_Mn_0.57_Al_0.30_Zn_0.25_Ti_0.13_)_Σ=5_(Si_5.95_Al_2.05_)_Σ=8_O_22_((OH)_1.75_F_0.22_Cl_0.03_)_Σ=2_; OH estimated by charge balance
Raman shift (cm-1)	intensity
164.912	0
167.805	3.532
170.698	125.691
173.59	334.515
176.483	534.331
179.376	815.605
182.268	1054.2
185.161	918.406
188.054	700.767
190.947	308.277
193.839	126.028
196.732	5.017
199.625	30.167
202.517	89.27
205.41	408.375
208.303	878.097
211.195	1290.33
214.088	1679.03
216.981	2112.95
219.874	2410.55
222.766	2540.55
225.659	2325.44
228.552	2023.71
231.444	1692.6
234.337	1369.45
237.23	1118.91
240.122	838.682
243.015	664.665
245.908	514.467
248.801	462.801
251.693	269.164
254.586	164.613
257.479	41.08
260.371	57.766
263.264	100.874
266.157	252.917
269.05	375.635
271.942	688.636
274.835	895.025
277.728	1132.5
280.62	1388.84
283.513	1520.21
286.406	1594.56
289.298	1709.91
292.191	1452.89
295.084	1275.2
297.977	1011.44
300.869	757.237
303.762	668.873
306.655	556.775
309.547	290.653
312.44	197.049
315.333	134.609
318.225	12.332
321.118	72.375
324.011	81.462
326.904	66.748
329.796	0.133
332.689	41.963
335.582	107.062
338.474	110.745
341.367	195.824
344.26	350.986
347.152	535.965
350.045	654.073
352.938	882.011
355.831	915.56
358.723	902.224
361.616	960.806
364.509	888.451
367.401	958.155
370.294	908.207
373.187	973.444
376.079	959.82
378.972	821.015
381.865	759.047
384.758	572.857
387.65	533.175
390.543	388.439
393.436	272.897
396.328	184.219
399.221	127.208
402.114	62.476
405.007	214.267
407.899	206.174
410.792	374.986
413.685	623.939
416.577	828.514
419.47	1004.32
422.363	1287.74
425.255	1360.07
428.148	1372.61
431.041	1328.83
433.934	1074.58
436.826	897.436
439.719	685.072
442.612	584.306
445.504	404.196
448.397	278.713
451.29	173.199
454.182	99.218
457.075	1.26
459.968	24.755
462.861	87.582
465.753	74.484
468.646	30.983
471.539	18.921
474.431	180.064
477.324	212.114
480.217	299.962
483.109	531.914
486.002	868.356
488.895	1179.16
491.788	1424.82
494.68	1683.99
497.573	2070.51
500.466	2465.83
503.358	2728.06
506.251	2976.1
509.144	3368.22
512.036	3680.88
514.929	3954.63
517.822	4386.71
520.715	4789.43
523.607	5150.14
526.5	5490.15
529.393	5711.37
532.286	5710.97
535.178	5533.64
538.071	5302.19
540.964	4997.92
543.856	4723.36
546.749	4502.38
549.642	4193.6
552.534	3925.42
555.427	3603.6
558.32	3318.91
561.213	2939.28
564.105	2674.94
566.998	2393.73
569.891	2111.87
572.783	2005.62
575.676	1424.66
578.569	1148.62
581.461	881.118
584.354	692.877
587.247	537.297
590.14	277.189
593.032	123.075
595.925	65.787
598.818	42.74
601.71	133.562
604.603	137.311
607.496	27.381
610.388	16.416
613.281	18.567
616.174	117.566
619.067	255.736
621.959	472.379
624.852	730.504
627.745	1028.56
630.637	1257.7
633.53	1593.94
636.423	1780.27
639.315	2096.45
642.208	2233.12
645.101	2519.3
647.994	2761.03
650.886	2994.53
653.779	3268.85
656.672	3359.05
659.564	3280.67
662.457	3078.48
665.35	2576.9
668.242	2247.18
671.135	2067.7
674.028	1980.63
676.92	1896.25
679.813	1770.6
682.706	1573.19
685.599	1263.45
688.491	685.757
691.384	278.536
694.277	26.294
697.169	7.788
700.062	136.408
702.955	72.293
705.847	375.226
708.74	655.087
711.633	950.457
714.526	1334.22
717.418	1567.38
720.311	1932.35
723.204	2367.69
726.096	2402.94
728.989	2482.3
731.882	2465.12
734.775	2406.73
737.667	2345.97
740.56	2113.56
743.453	1854.54
746.345	1563.96
749.238	1282.3
752.131	942.313
755.023	776.45
757.916	604.294
760.809	568.788
763.702	488.056
766.594	637.928
769.487	805.928
772.38	946.933
775.272	1058.99
778.165	1119.32
781.058	1109.88
783.951	1171.23
786.843	1100.75
789.736	1027.13
792.629	921.599
795.521	877.381
798.414	598.652
801.307	616.665
804.199	539.526
807.092	434.844
809.985	293.338
812.878	351.047
815.77	235.903
818.663	99.291
821.556	27.301
824.448	70.624
827.341	9.223
830.234	14.476
833.127	119.573
836.019	94.875
838.912	85.949
841.805	61.021
844.697	6.588
847.59	33.56
850.483	62.198
853.375	124.822
856.268	188.744
859.161	199.828
862.054	234.834
864.946	366.11
867.839	407.433
870.732	481.94
873.624	490.471
876.517	595.371
879.41	607.921
882.302	681.11
885.195	709.202
888.088	736.008
890.981	744.994
893.873	815.063
896.766	893.715
899.659	977.516
902.551	919.227
905.444	1020.08
908.337	1203.56
911.229	1325.46
914.122	1493.58
917.015	1415.55
919.907	1390.71
922.8	1316.31
925.693	1303.02
928.586	1239.73
931.478	1169.57
934.371	1123.26
937.264	1072.64
940.156	968.038
943.049	956.771
945.942	882.389
948.834	744.798
951.727	670.27
954.62	590.161
957.513	440.529
960.405	411.772
963.298	272.311
966.191	205.951
969.083	59.347
971.976	53.972
974.869	23.141
977.761	39.108
980.654	19.575
983.547	69.717
986.44	51.339
989.332	167.538
992.225	241.536
995.118	350.283
998.01	537.516
1000.9	603.071
1003.8	763.063
1006.69	808.896
1009.58	909.926
1012.47	918.719
1015.37	925.042
1018.26	809.89
1021.15	802.916
1024.05	674.399
1026.94	643.806
1029.83	446.95
1032.72	341.375
1035.62	217.805
1038.51	188.449
1041.4	132.917
1044.29	79.838
1047.19	12.401
1050.08	13.47
1052.97	25.752
1055.87	14.768
1058.76	18.604
1061.65	17.864
1064.54	32.575
1067.43	69.047
1070.33	34.847
1073.22	186.763
1076.11	164.899
1079.01	80.645
1081.9	154.819
1084.79	197.175
1087.68	228.414
1090.58	157.438
1093.47	152.07
1096.36	138.068
1099.26	149.146
1102.15	66.824
1105.04	4.21
1107.93	52.97
1110.83	36.134
1113.72	6.799
1116.61	17.518
1119.5	6.953
1122.4	103.455
1125.29	2.182
1128.18	16.218
1131.08	122.813
1133.97	104.844
1136.86	116.009
1139.75	118.475
1142.65	167.975
1145.54	149.707
1148.43	159.335
1151.32	197.399
1154.22	234.688
1157.11	257.578
1160	322.612
1162.89	322.43
1165.79	320.85
1168.68	250.728
1171.57	291.608
1174.46	385.427
1177.36	375.645
1180.25	295.676
1183.14	309.329
1186.04	251.175
1188.93	237.341
1191.82	238.864
1194.71	240.797
1197.61	186.597
1200.5	230.874
1203.39	141.156
1206.29	171.389
1209.18	185.471
1212.07	221.95
1214.96	192.951
1217.86	225.144
1220.75	116.898
1223.64	131.259
1226.53	188.894
1229.43	176.18
1232.32	168.079
1235.21	147.293
1238.11	217.021
1241	162.853
1243.89	159.02
1246.78	185.386
1249.68	200.811
1252.57	78.547
1255.46	35.061
1258.35	127.45
1261.25	90.077
1264.14	84.515
1267.03	72.064
1269.92	84.785
1272.82	182.038
1275.71	175.681
1278.6	164.629
1281.49	53.086
1284.39	12.335
1287.28	56.168
1290.17	30.687
1293.07	72.799
1295.96	4.976
