Measurement: Raman, 780 nm, unoriented, Raman Data Processed
Mineral: Magnesiochromite
Rruff sample: R050399
Ideal chemistry: MgCr^3+^_2_O_4_
Locality: Troodos Mountains, Cyprus
Source: Andy McCarthy
Description: Black grains
Measured chemistry: (Mg_0.68_Fe^2+^_0.32_)_Σ=1_(Cr_1.29_Al_0.64_Fe^3+^_0.07_)_Σ=2_O__4
Raman shift (cm-1)	intensity
165.323	0
168.216	3.51761
171.108	6.26291
174.001	2.04901
176.894	0.687012
179.786	2.8772
182.679	0.763031
185.572	2.51901
188.465	0.47525
191.357	2.78653
194.25	3.12277
197.143	3.29065
200.035	4.98367
202.928	2.50165
205.821	5.5932
208.714	2.79163
211.606	4.38873
214.499	4.54117
217.392	5.64343
220.284	5.42206
223.177	2.2561
226.07	4.11935
228.962	5.18662
231.855	4.61089
234.748	3.68987
237.641	4.03644
240.533	2.92697
243.426	2.54254
246.319	1.75522
249.211	2.89197
252.104	3.56079
254.997	0.100159
257.889	1.75024
260.782	4.59405
263.675	1.70224
266.567	2.93994
269.46	2.86722
272.353	2.82486
275.246	4.08069
278.138	2.13925
281.031	3.16948
283.924	2.02094
286.816	2.73126
289.709	3.70325
292.602	3.41916
295.495	1.02237
298.387	0.346008
301.28	2.49091
304.173	0.655487
307.065	0.598236
309.958	3.97433
312.851	1.28897
315.743	1.62741
318.636	0.332336
321.529	1.28549
324.421	1.08691
327.314	2.18424
330.207	1.02338
333.1	2.58844
335.992	1.77499
338.885	1.57034
341.778	0.492493
344.67	1.19369
347.563	1.35583
350.456	0.347565
353.349	1.29535
356.241	0.600983
359.134	3.18436
362.027	1.42618
364.919	1.93646
367.812	0.633301
370.705	0.693359
373.597	3.25461
376.49	1.81186
379.383	2.3873
382.276	4.20291
385.168	1.04608
388.061	2.12137
390.954	1.52441
393.846	1.01489
396.739	0.208252
399.632	1.17068
402.524	1.12891
405.417	1.80267
408.31	4.22659
411.202	5.58993
414.095	3.66434
416.988	4.30942
419.881	5.12961
422.773	7.83276
425.666	7.56427
428.559	7.06457
431.451	7.37698
434.344	6.69223
437.237	9.93259
440.13	10.0894
443.022	9.74106
445.915	10.0776
448.808	9.88211
451.7	7.94266
454.593	9.78012
457.486	8.22113
460.378	8.92438
463.271	8.76559
466.164	6.59003
469.057	7.5726
471.949	6.11529
474.842	5.55859
477.735	3.4115
480.627	4.93265
483.52	4.078
486.413	5.26053
489.305	4.68347
492.198	0.600128
495.091	0.313843
497.983	2.84622
500.876	0.974945
503.769	1.30145
506.662	1.7196
509.554	2.86764
512.447	3.93683
515.34	5.57239
518.232	4.08426
521.125	6.88428
524.018	8.93121
526.91	8.34067
529.803	7.78046
532.696	8.09399
535.589	11.2678
538.481	11.9129
541.374	10.6606
544.267	10.2733
547.159	11.3842
550.052	10.9648
552.945	11.5034
555.837	12.3806
558.73	10.8343
561.623	9.56189
564.516	11.2855
567.408	13.273
570.301	11.1838
573.194	11.4172
576.086	10.0845
578.979	14.2866
581.872	11.0996
584.764	11.5586
587.657	10.7648
590.55	8.34735
593.443	6.43564
596.335	8.86612
599.228	8.89026
602.121	4.78653
605.013	5.49924
607.906	6.64947
610.799	4.00339
613.692	0.127167
616.584	0.597015
619.477	0.680542
622.37	2.49017
625.262	0.517456
628.155	0.291443
631.048	1.44141
633.94	0.480804
636.833	0.355713
639.726	3.35342
642.619	4.86447
645.511	6.74359
648.404	9.56158
651.297	8.63693
654.189	10.2387
657.082	10.4052
659.975	12.1689
662.867	9.11685
665.76	14.0214
668.653	17.4151
671.545	20.6608
674.438	20.0608
677.331	24.8941
680.224	28.4364
683.116	32.5211
686.009	40.2803
688.902	45.2399
691.794	46.5672
694.687	51.9032
697.58	51.7675
700.472	49.6584
703.365	51.1786
706.258	52.0922
709.151	51.5574
712.043	52.48
714.936	52.6439
717.829	51.3177
720.721	56.7559
723.614	57.877
726.507	62.1428
729.399	68.3186
732.292	70.9149
735.185	75.068
738.078	77.177
740.97	73.4553
743.863	72.4998
746.756	66.2206
749.648	63.4135
752.541	55.0917
755.434	45.4852
758.327	39.4307
761.219	33.2922
764.112	25.6875
767.005	23.2824
769.897	14.2316
772.79	12.1213
775.683	11.1447
778.575	7.4364
781.468	0.881744
784.361	0.980896
787.254	0.326752
790.146	1.45499
793.039	1.50558
795.932	1.32968
798.824	0.90683
801.717	1.20639
804.61	1.85864
807.502	0.71228
810.395	0.899231
813.288	0.584137
816.181	2.0405
819.073	1.88708
821.966	0.269135
824.859	3.98923
827.751	3.41159
830.644	3.48755
833.537	5.28711
836.429	7.61969
839.322	3.52875
842.215	5.70639
845.107	7.25601
848	4.71741
850.893	5.83886
853.786	3.78628
856.678	3.89502
859.571	5.64575
862.464	7.01865
865.356	4.41412
868.249	5.27396
871.142	5.45706
874.034	6.32437
876.927	5.65448
879.82	5.46832
882.713	3.3461
885.605	2.71481
888.498	5.92438
891.391	5.49664
894.283	3.16119
897.176	0.841095
900.069	2.73889
902.962	2.55887
905.854	2.56854
908.747	0.647858
911.64	2.43942
914.532	1.08676
917.425	0.144623
920.318	1.81351
923.21	0.781982
926.103	1.62173
928.996	0.545166
931.888	2.79044
934.781	0.488708
937.674	3.41934
940.567	0.236481
943.459	4.14255
946.352	2.99411
949.245	2.33231
952.137	3.1358
955.03	4.73911
957.923	3.04266
960.815	2.14691
963.708	4.4339
966.601	2.99149
969.494	0.842834
972.386	2.48041
975.279	1.06064
978.172	1.8551
981.064	2.12735
983.957	0.003754
986.85	1.31229
989.742	3.38925
992.635	2.20389
995.528	3.34509
998.42	1.66443
1001.31	0.283478
1004.21	3.48978
1007.1	0.177063
1009.99	0.048187
1012.88	0.035339
1015.78	2.08136
1018.67	1.59451
1021.56	0.10376
1024.45	1.9689
1027.35	3.28513
1030.24	3.37106
1033.13	1.35556
1036.03	2.74326
1038.92	3.95831
1041.81	3.44574
1044.7	2.18072
1047.6	2.65463
1050.49	2.94397
1053.38	3.39417
1056.28	3.84442
1059.17	3.68515
1062.06	3.70758
1064.95	2.94772
1067.85	2.93683
1070.74	3.48276
1073.63	3.64084
1076.52	1.79907
1079.42	2.67706
1082.31	4.02667
1085.2	3.82684
1088.09	3.69104
1090.99	3.7912
1093.88	2.66187
1096.77	5.19369
1099.66	2.02185
1102.56	1.13327
1105.45	4.51202
1108.34	1.02255
1111.24	1.72296
1114.13	2.54129
1117.02	2.31781
1119.91	2.09253
1122.81	2.4978
1125.7	1.47894
1128.59	3.00037
1131.48	0.909119
1134.38	0.097351
1137.27	0.837738
1140.16	0.92688
1143.06	2.64877
1145.95	3.85367
1148.84	4.23636
1151.73	2.97989
1154.63	2.23126
1157.52	3.53375
1160.41	3.56024
1163.3	4.34784
1166.2	5.64981
1169.09	4.70126
1171.98	6.64737
1174.88	4.44727
1177.77	5.43948
1180.66	5.27332
1183.55	6.61481
1186.45	2.5423
1189.34	3.37308
1192.23	4.71182
1195.12	5.99686
1198.02	4.52283
1200.91	4.49942
1203.8	3.56824
1206.69	4.6181
1209.59	3.55719
1212.48	3.48709
1215.37	5.73724
1218.27	1.3165
1221.16	2.65713
1224.05	1.73544
1226.94	4.10818
1229.84	3.50183
1232.73	2.29541
1235.62	1.9967
1238.52	3.1604
1241.41	1.00546
1244.3	0.321075
1247.19	0.581116
1250.09	1.125
1252.98	2.67383
1255.87	2.05075
1258.76	1.51733
1261.66	4.87949
1264.55	3.99853
1267.44	2.04813
1270.33	0.799774
1273.23	1.78128
