Measurement: Raman, 532 nm, unoriented, Raman Data Processed
Mineral: Magnetite
Rruff sample: R061111
Ideal chemistry: Fe^2+^Fe^3+^_2_O_4_
Locality: near Scotia Talc mine, Barberton Mountain, Transvaal, South Afica
Source: Michael Scott
Description: Black submetallic grains and octahedra associated with light green massive willemseite
Measured chemistry: (Fe^2+^_0.51_Ni_0.48_Co_0.01_)_Î£=1_Fe^3+^_2_O_4_; trace amounts of Al; Fe^2+^ and Fe^3+^ splitted by charge balance
Raman shift (cm-1)	intensity
172.669	0
175.562	22.4622
178.454	23.6737
181.347	42.4017
184.24	53.5346
187.133	11.6429
190.025	73.4507
192.918	23.3828
195.811	62.7906
198.703	108.96
201.596	119.475
204.489	94.437
207.381	84.6041
210.274	85.8176
213.167	64.299
216.06	56.5863
218.952	18.3173
221.845	9.34973
224.738	1.75549
227.63	12.111
230.523	0.712158
233.416	19.1792
236.309	26.4629
239.201	7.45142
242.094	4.82361
244.987	3.2804
247.879	11.0013
250.772	72.4907
253.665	2.74365
256.557	39.8468
259.45	6.8595
262.343	6.104
265.236	43.1065
268.128	48.9275
271.021	26.9595
273.913	64.6497
276.806	42.3846
279.699	21.9668
282.592	15.6282
285.484	34.5161
288.377	56.9578
291.27	67.9428
294.162	79.5017
297.055	97.4546
299.948	90.092
302.841	121.229
305.733	160.137
308.626	139.411
311.519	142.053
314.411	165.34
317.304	142.597
320.197	167.685
323.089	174.868
325.982	181.499
328.875	199.345
331.767	154.394
334.66	147.99
337.553	125.155
340.446	117.469
343.338	77.5664
346.231	59.6797
349.124	92.0061
352.016	90.1163
354.909	82.8855
357.802	72.2532
360.695	76.9974
363.587	80.7596
366.48	102.018
369.373	94.1009
372.265	68.3063
375.158	51.4056
378.051	50.6608
380.943	41.9064
383.836	69.0726
386.729	25.701
389.622	11.8851
392.514	59.8351
395.407	20.7269
398.3	1.6759
401.192	6.52637
404.085	14.8081
406.978	4.3927
409.87	5.30505
412.763	13.6514
415.656	1.64197
418.548	9.2019
421.441	10.5697
424.334	35.331
427.227	59.9307
430.119	49.6471
433.012	108.755
435.905	89.8499
438.797	127.664
441.69	184.72
444.583	204.374
447.475	211.842
450.368	240.782
453.261	292.011
456.154	328.692
459.046	394.752
461.939	443.359
464.832	486.788
467.724	521.19
470.617	498.534
473.51	516.419
476.402	546.885
479.295	535.593
482.188	437.248
485.08	363.009
487.973	294.877
490.866	253.595
493.759	172.987
496.651	159.98
499.544	93.4731
502.437	74.478
505.329	44.623
508.222	22.2688
511.115	19.8608
514.008	24.385
516.9	3.25073
519.793	10.7253
522.686	14.2947
525.578	23.9177
528.471	23.5825
531.364	62.7109
534.256	70.7092
537.149	96.2571
540.042	101.352
542.934	154.497
545.827	215.509
548.72	208.623
551.612	240.044
554.505	223.966
557.398	252.449
560.291	268.567
563.183	262.025
566.076	238.655
568.969	211.29
571.861	153.429
574.754	156.976
577.647	110.51
580.54	82.2261
583.432	72.0379
586.325	72.9446
589.218	32.3701
592.11	61.4915
595.003	4.35449
597.896	7.16553
600.788	26.377
603.681	19.762
606.574	12.4797
609.467	11.9416
612.359	31.4334
615.252	21.7229
618.145	37.3323
621.037	43.592
623.93	88.9067
626.823	130.959
629.715	115.973
632.608	128.643
635.501	88.3091
638.394	101.498
641.286	159.552
644.179	243.54
647.072	262.263
649.964	331.861
652.857	377.576
655.75	456.951
658.642	533.809
661.535	591.556
664.428	685.385
667.321	727.016
670.213	791.626
673.106	876.944
675.999	911.497
678.891	1023.43
681.784	1005.86
684.677	967.218
687.569	910.962
690.462	836.141
693.355	708.047
696.247	617.025
699.14	547.96
702.033	485.469
704.926	425.276
707.818	331.004
710.711	300.631
713.604	262.058
716.496	248.992
719.389	169.145
722.282	149.018
725.174	151.76
728.067	97.386
730.96	85.0977
733.852	80.7388
736.745	62.2078
739.638	66.4431
742.531	26.1831
745.423	26.6348
748.316	36.6841
751.209	9.9187
754.101	34.0393
756.994	16.4973
759.887	3.03101
762.779	16.5015
765.672	22.8564
768.565	2.05151
771.458	5.56543
774.35	4.89575
777.243	11.1467
780.136	1.56397
783.028	16.7517
785.921	12.3648
788.814	0.278564
791.707	1.70679
794.599	2.06299
797.492	19.6548
800.385	43.5996
803.277	33.4236
806.17	22.1587
809.063	42.8008
811.955	30.5684
814.848	25.1865
817.741	45.2893
820.634	66.0564
823.526	41.4978
826.419	67.9116
829.312	40.6977
832.204	54.8894
835.097	71.4536
837.99	91.9985
840.882	51.3972
843.775	44.9131
846.668	59.0759
849.561	62.4233
852.453	44.0466
855.346	30.5198
858.239	30.4165
861.131	46.0859
864.024	33.2656
866.917	37.4221
869.809	0.103516
872.702	29.2612
875.595	48.0747
878.487	45.4749
881.38	54.6887
884.273	47.8723
887.165	19.4226
890.058	40.4194
892.951	54.7156
895.844	28.1389
898.736	1.88452
901.629	4.05664
904.522	31.4045
907.414	27.886
910.307	18.6235
913.2	11.7766
916.092	5.15552
918.985	67.239
921.878	59.481
924.771	64.5859
927.663	33.762
930.556	55.8262
933.449	33.6035
936.341	23.512
939.234	43.2546
942.127	10.6592
945.019	43.3066
947.912	60.9756
950.805	55.7202
953.698	23.6172
956.59	17.6299
959.483	47.2346
962.376	45.7998
965.268	59.2398
968.161	50.574
971.054	18.7407
973.947	15.2541
976.839	36.2551
979.732	72.7705
982.625	35.679
985.517	17.3394
988.41	30.1536
991.303	52.0674
994.195	13.6162
997.088	47.0391
999.981	42.6255
1002.87	23.3848
1005.77	49.5554
1008.66	41.4944
1011.55	40.0693
1014.44	17.0806
1017.34	25.2234
1020.23	36.2476
1023.12	29.4404
1026.02	14.3967
1028.91	88.0212
1031.8	83.9194
1034.69	38.2793
1037.59	57.8596
1040.48	70.9544
1043.37	52.4751
1046.26	25.7639
1049.16	60.5459
1052.05	46.0981
1054.94	16.5283
1057.84	64.4438
1060.73	14.1169
1063.62	26.1736
1066.51	17.6326
1069.41	44.1858
1072.3	26.4614
1075.19	47.4153
1078.08	36.4089
1080.98	0.621094
1083.87	42.8591
1086.76	39.8342
1089.65	12.1157
1092.55	14.4717
1095.44	28.3657
1098.33	23.019
1101.22	20.1035
1104.12	27.8997
1107.01	9.2583
1109.9	16.4023
1112.8	4.53345
1115.69	11.3269
1118.58	44.936
1121.47	34.321
1124.37	35.0654
1127.26	51.1953
1130.15	51.2315
1133.05	17.2707
1135.94	56.6655
1138.83	39.4924
1141.72	54.3926
1144.62	20.0364
1147.51	55.0679
1150.4	61.8328
1153.29	60.1113
1156.19	69.1226
1159.08	59.6099
1161.97	38.4766
1164.87	20.3362
1167.76	35.6946
1170.65	6.00024
1173.54	30.4582
1176.43	5.60229
1179.33	11.4883
1182.22	57.6865
1185.11	71.4275
1188.01	85.6755
1190.9	38.4519
1193.79	27.8787
1196.68	30.0659
1199.58	70.8645
1202.47	0.5354
1205.36	90.1995
1208.26	60.6484
1211.15	39.5261
1214.04	37.5706
1216.93	11.9612
1219.83	41.3088
1222.72	47.0813
1225.61	71.0127
1228.5	56.6501
1231.4	42.9429
1234.29	38.6169
1237.18	14.0359
1240.08	8.79639
1242.97	30.5581
1245.86	31.2771
1248.75	84.9119
1251.65	64.0928
1254.54	64.1365
1257.43	43.3452
1260.32	47.0361
1263.22	39.7415
1266.11	11.1655
1269	76.3643
1271.89	48.9453
1274.79	45.0393
1277.68	51.0803
1280.57	21.1204
1283.46	4.10693
