Measurement: Raman, 780 nm, unoriented, Raman Data Processed
Mineral: Malayaite
Rruff sample: R080024
Ideal chemistry: CaSn^4+^O(SiO_4_)
Locality: Ash Mountain, McDame, British Columbia, Canada
Source: Mark N. Feinglos, William P. Pinch
Description: Tan colored tabular crystals with a subconchoidal  fracture on a broken surface.
Measured chemistry: Ca_1.01_(Sn_1.01_Ti_0.01_)Si_0.98_O_5_; = bright part. (Ca_1.01_Fe_0.01_)(Sn_0.96_Ti_0.05_)Si_0.98_O_5_ = dark part
Raman shift (cm-1)	intensity
95.4743	0
97.8849	35.6409
100.296	38.9646
102.706	42.1105
105.117	10.794
107.527	2.30457
109.938	13.2559
112.348	17.0128
114.759	62.5402
117.17	95.6639
119.58	83.3887
121.991	109.129
124.401	170.888
126.812	247.185
129.222	350.906
131.633	516.65
134.044	863.091
136.454	1413.24
138.865	703.46
141.275	325.618
143.686	314.454
146.097	389.965
148.507	526.015
150.918	668.566
153.328	857.603
155.739	1080.5
158.149	1327.71
160.56	1599.53
162.971	1903.46
165.381	2220.2
167.792	2584.59
170.202	2936.08
172.613	3323.23
175.024	3563.85
177.434	3508.53
179.845	3394.08
182.255	3278.56
184.666	3072.37
187.077	2738.31
189.487	2388.04
191.898	2095.83
194.308	1826.55
196.719	1590.13
199.129	1377.33
201.54	1174.72
203.951	986.079
206.361	812.235
208.772	659.566
211.182	532.575
213.593	416.797
216.004	317.241
218.414	260.51
220.825	233.637
223.235	207.232
225.646	84.1406
228.056	10.1089
230.467	38.9839
232.877	64.9556
235.288	66.4568
237.699	49.4314
240.109	42.7874
242.52	6.50342
244.93	24.7893
247.341	87.5574
249.752	140.806
252.162	176.837
254.573	170.802
256.983	118.001
259.394	28.4844
261.805	14.748
264.215	2.99585
266.626	40.3984
269.036	136.387
271.447	278.274
273.858	454.969
276.268	659.018
278.679	879.472
281.089	1114.63
283.5	1363.07
285.91	1575.86
288.321	1743.56
290.731	1856.42
293.142	1797.51
295.553	1592.95
297.963	1308.62
300.374	1060.56
302.784	938.981
305.195	859.941
307.606	808.414
310.016	817.61
312.427	946.199
314.837	1259.48
317.248	1735.91
319.659	2433.52
322.069	3167.99
324.48	3272.53
326.89	2367.1
329.301	1315.61
331.712	723.933
334.122	474.493
336.533	529.938
338.943	806.996
341.354	1290.4
343.764	1924.54
346.175	2641.82
348.586	3401.9
350.996	4279.84
353.407	5300.42
355.817	6428.37
358.228	7613.03
360.639	8668.92
363.049	9140.16
365.46	8354.2
367.87	6572.49
370.281	4970.96
372.691	3803.04
375.102	2946
377.512	2287.28
379.923	1754.24
382.334	1305.82
384.744	895.209
387.155	566.99
389.565	322.851
391.976	153.119
394.387	46.4685
396.797	22.2224
399.208	51.615
401.618	54.6262
404.029	31.4016
406.44	25.447
408.85	14.3433
411.261	33.748
413.671	72.0347
416.082	94.0215
418.493	94.7822
420.903	97.9573
423.314	110.651
425.724	126.443
428.135	145.355
430.545	195.268
432.956	227.516
435.366	308.144
437.777	379.028
440.188	462.003
442.598	509.915
445.009	472.29
447.42	377.164
449.83	256.675
452.241	179.27
454.651	89.3611
457.062	36.0952
459.472	5.63159
461.883	24.3567
464.293	24.8967
466.704	19.7251
469.115	30.7949
471.525	16.3306
473.936	1.00757
476.346	39.2852
478.757	72.2124
481.168	136.036
483.578	223.838
485.989	345.118
488.399	498.989
490.81	694.637
493.221	912.819
495.631	1197.97
498.042	1491.9
500.452	1837.06
502.863	2199.84
505.273	2536.71
507.684	2914.81
510.095	3228.85
512.505	3412.97
514.916	3358.94
517.326	3016.3
519.737	2558.15
522.148	2034.79
524.558	1521.48
526.969	1093.65
529.379	727.306
531.79	452.657
534.2	242.856
536.611	106.109
539.022	17.7122
541.432	31.0242
543.843	57.8076
546.253	86.4888
548.664	64.0894
551.074	4.94189
553.485	208.846
555.896	510.037
558.306	752.015
560.717	964.054
563.127	1317.09
565.538	1855.89
567.949	2703.51
570.359	4084.38
572.77	5025.77
575.18	3553.02
577.591	1609.47
580.001	723.806
582.412	423.597
584.823	342.121
587.233	379.956
589.644	491.314
592.054	661.113
594.465	907.959
596.876	1218.95
599.286	1607.8
601.697	2090.48
604.107	2687.1
606.518	3338.82
608.928	4124.08
611.339	4900.94
613.75	5720.96
616.16	6472.75
618.571	7095.02
620.981	7527.24
623.392	7762.29
625.803	7697.05
628.213	7340.52
630.624	6715.95
633.034	5941.35
635.445	5095.22
637.856	4370.85
640.266	3686.97
642.677	3145.89
645.087	2671.74
647.498	2254.8
649.908	1957.89
652.319	1691.01
654.73	1444.85
657.14	1265.23
659.551	1064.77
661.961	902.633
664.372	722.383
666.783	560.861
669.193	411.182
671.604	302.159
674.014	172.476
676.425	77.0205
678.835	8.4082
681.246	53.6848
683.657	84.1423
686.067	88.1636
688.478	75.3411
690.888	28.5586
693.299	18.5242
695.71	98.5901
698.12	176.195
700.531	273.301
702.941	388.642
705.352	514.908
707.763	648.325
710.173	808.804
712.584	963.912
714.994	1108.04
717.405	1269.47
719.815	1453.26
722.226	1645.96
724.636	1842.18
727.047	2046.16
729.458	2259.02
731.868	2485.89
734.279	2736.41
736.689	2958.17
739.1	3173.31
741.511	3316.45
743.921	3365.39
746.332	3345.55
748.742	3258.52
751.153	3132.58
753.563	2935.35
755.974	2690.14
758.385	2393.08
760.795	2144.27
763.206	1852.46
765.616	1616.74
768.027	1391.84
770.438	1153.28
772.848	930.486
775.259	737.743
777.669	564.178
780.08	413.543
782.49	268.887
784.901	163.63
787.312	91.2449
789.722	23.1226
792.133	6.35596
794.543	32.801
796.954	40.3215
799.365	30.6694
801.775	34.418
804.186	33.5059
806.596	33.4475
809.007	24.3674
811.418	16.1995
813.828	0.923828
816.239	15.0584
818.649	43.251
821.06	91.4453
823.471	136.609
825.881	205.2
828.292	263.296
830.702	345.585
833.113	456.357
835.523	586.24
837.934	752.794
840.345	930.753
842.755	1130.07
845.166	1366.77
847.576	1623.12
849.987	1845.89
852.397	2043.87
854.808	2174.22
857.219	2216.24
859.629	2217.19
862.04	2183.14
864.45	2105.43
866.861	2004.52
869.271	1894.19
871.682	1738.15
874.093	1556.75
876.503	1370.71
878.914	1193.8
881.324	1073.28
883.735	974.767
886.146	895.824
888.556	865.775
890.967	815.726
893.377	741.54
895.788	658.778
898.198	569.365
900.609	509.929
903.02	472.33
905.43	451.538
907.841	446.091
910.251	468.485
912.662	502.858
915.073	573.07
917.483	646.295
919.894	750.586
922.304	851.478
924.715	948.757
927.125	1027.84
929.536	1097.23
931.947	1160.95
934.357	1171.59
936.768	1168.23
939.178	1119.23
941.589	1074.74
944	1004.54
946.41	943.651
948.821	901.629
951.231	843.737
953.642	779.86
956.053	714.592
958.463	657.588
960.874	575.934
963.284	485.038
965.695	306.172
968.105	74.1548
970.516	42.783
972.927	53.6487
975.337	49.074
977.748	43.4531
980.158	11.2212
982.569	0.421875
984.98	49.3684
987.39	108.36
989.801	159.747
992.211	220.627
994.622	288.515
997.032	392.57
999.443	398.75
1001.85	359.473
1004.26	301.523
1006.67	248.216
1009.09	216.505
1011.5	139.044
1013.91	61.1304
1016.32	24.8018
1018.73	6.25342
1021.14	55.0801
1023.55	52.001
1025.96	18.4746
