Measurement: Raman, 780 nm, unoriented, Raman Data Processed
Mineral: Mammothite
Rruff sample: R130100
Ideal chemistry: Pb^2+^_6_Cu^2+^_4_AlSb^5+^O_2_(S^6+^O_4_)_2_Cl_4_(OH)_16_
Locality: Rowley mine, Maricopa County, Arizona, USA
Source: Joe Ruiz
Description: Blue bladed crystals, associated with blue cubes of boleite R130099, irregular masses of blue diaboleite, colorless paralaurionite, colorless gypsum in massive cerussite
Raman shift (cm-1)	intensity
103.252	0
106.627	0.628838
110.002	0.929771
113.377	4.20959
116.752	7.36713
120.127	4.57913
123.501	4.37067
126.876	2.59615
130.251	2.35555
133.626	1.09142
137.001	0.496674
140.375	0.560101
143.75	1.69867
147.125	4.19255
150.5	5.28786
153.875	6.42422
157.25	6.9071
160.624	8.36838
163.999	5.36934
167.374	2.45367
170.749	1.73584
174.124	0.191872
177.498	0.891039
180.873	0.482771
184.248	0.815712
187.623	2.27325
190.998	2.96557
194.373	3.55431
197.747	5.32962
201.122	6.3198
204.497	5.71042
207.872	6.77637
211.247	5.16268
214.621	5.61449
217.996	5.03883
221.371	4.84655
224.746	4.88282
228.121	4.97876
231.495	3.91892
234.87	3.91108
238.245	3.70481
241.62	2.98472
244.995	3.06559
248.369	2.3298
251.744	1.84258
255.119	0.684521
258.494	1.05229
261.869	0.850027
265.244	1.32961
268.618	0.273072
271.993	1.7707
275.368	2.26797
278.743	2.95754
282.118	3.62285
285.493	3.9517
288.867	4.84456
292.242	4.37881
295.617	3.85874
298.992	5.27477
302.366	4.7299
305.741	5.28967
309.116	4.86633
312.491	3.76834
315.866	2.67865
319.241	2.44274
322.615	2.58982
325.99	2.05804
329.365	1.61069
332.74	0.503386
336.115	0.069911
339.49	0.469185
342.864	0.06291
346.239	0.600707
349.614	0.187445
352.989	0.024186
356.364	0.37431
359.738	0.65505
363.113	0.661262
366.488	0.277794
369.863	1.11246
373.238	1.18083
376.613	1.16187
379.987	1.83761
383.362	1.79639
386.737	3.68566
390.112	3.63412
393.486	4.40828
396.861	4.60436
400.236	4.39425
403.611	3.0218
406.986	1.38878
410.361	1.202
413.735	0.827151
417.11	1.3552
420.485	0.722129
423.86	0.753511
427.235	2.3059
430.61	3.42248
433.984	1.59374
437.359	1.61635
440.734	2.23247
444.109	2.92668
447.484	3.48685
450.858	3.83239
454.233	2.82106
457.608	1.09864
460.983	0.75246
464.358	0.042638
467.733	0.698487
471.107	0.416649
474.482	0.227001
477.857	0.412459
481.232	0.287151
484.606	0.324704
487.981	0.019222
491.356	1.33587
494.731	0.588769
498.106	1.2759
501.481	1.40223
504.855	1.32005
508.23	1.43326
511.605	2.02005
514.98	1.9771
518.355	2.92951
521.73	4.59666
525.104	5.87537
528.479	6.38192
531.854	5.76168
535.229	4.9058
538.604	3.59711
541.978	2.77516
545.353	2.1288
548.728	1.56838
552.103	0.950228
555.478	0.524695
558.852	0.655078
562.227	0.191935
565.602	0.394381
568.977	0.073184
572.352	0.036629
575.726	0.0453
579.101	0.129473
582.476	0.158762
585.851	0.325634
589.226	0.7832
592.601	2.01914
595.975	2.06308
599.35	2.46859
602.725	1.33698
606.1	0.741693
609.475	0.827116
612.85	1.39586
616.224	1.52347
619.599	1.51822
622.974	1.68327
626.349	2.09463
629.723	3.06175
633.098	4.44002
636.473	5.70406
639.848	6.73261
643.223	6.54979
646.598	4.6281
649.972	2.85496
653.347	1.36394
656.722	1.17825
660.097	0.570176
663.472	0.057216
666.846	0.346044
670.221	0.204894
673.596	0.020553
676.971	0.065187
680.346	0.274505
683.721	0.366406
687.095	0.141728
690.47	0.448095
693.845	0.781755
697.22	0.68357
700.595	0.273109
703.97	0.243769
707.344	0.384813
710.719	0.188381
714.094	0.080221
717.469	1.47895
720.843	0.965299
724.218	1.24317
727.593	0.946684
730.968	0.61065
734.343	0.604342
737.718	0.448994
741.092	0.349078
744.467	0.626961
747.842	0.057528
751.217	0.428711
754.592	0.109122
757.966	0.061482
761.341	0.718356
764.716	0.383862
768.091	0.151465
771.466	0.596119
774.841	0.627694
778.215	0.937719
781.59	1.03049
784.965	0.667758
788.34	0.549459
791.715	1.14273
795.089	0.386956
798.464	0.359682
801.839	0.105941
805.214	1.04855
808.589	0.532543
811.963	0.895582
815.338	0.603223
818.713	0.550157
822.088	0.400505
825.463	0.35752
828.838	0.031863
832.212	0.395413
835.587	0.601688
838.962	0.682363
842.337	0.856122
845.712	0.9201
849.087	0.813182
852.461	0.636579
855.836	0.514229
859.211	0.86999
862.586	1.056
865.961	1.26727
869.335	0.800567
872.71	1.12477
876.085	0.684863
879.46	0.651859
882.835	1.02674
886.209	0.09021
889.584	0.12519
892.959	0.162062
896.334	0.041506
899.709	0.022518
903.083	0.204486
906.458	0.536327
909.833	0.203684
913.208	1.22258
916.583	1.15957
919.958	2.19577
923.332	2.74414
926.707	4.12553
930.082	4.90313
933.457	5.04247
936.832	4.10636
940.207	3.2144
943.581	1.85949
946.956	1.06517
950.331	1.39552
953.706	1.62994
957.081	1.13592
960.455	2.06734
963.83	1.8181
967.205	1.91308
970.58	1.84682
973.955	2.40498
977.329	3.24445
980.704	2.46428
984.079	3.03073
987.454	2.74354
990.829	2.74366
994.203	2.86783
997.578	2.08169
1000.95	3.23087
1004.33	2.78229
1007.7	3.79934
1011.08	3.93702
1014.45	4.39098
1017.83	4.09961
1021.2	4.03728
1024.58	2.28649
1027.95	0.82936
1031.33	1.05502
1034.7	0.234603
1038.08	0.32434
1041.45	0.083889
1044.83	0.256833
1048.2	0.693573
1051.58	0.483479
1054.95	0.284417
1058.33	0.680225
1061.7	0.072305
1065.08	0.006651
1068.45	0.418186
1071.82	0.202806
1075.2	0.266382
1078.57	0.59546
1081.95	0.302292
1085.32	0.45361
1088.7	0.254564
1092.07	0.969346
1095.45	0.604302
1098.82	0.525862
1102.2	0.533996
1105.57	0.737916
1108.95	0.839755
1112.32	0.865095
1115.7	1.26162
1119.07	1.78402
1122.45	1.96388
1125.82	2.02383
1129.2	3.26378
1132.57	2.8466
1135.95	3.23506
1139.32	3.29567
1142.69	2.1911
1146.07	1.47884
1149.44	1.1625
1152.82	0.598849
1156.19	1.17202
1159.57	0.557991
1162.94	0.26739
1166.32	0.549297
1169.69	0.534579
1173.07	0.108707
1176.44	0.495366
1179.82	0.044045
1183.19	0.268281
1186.57	0.480284
1189.94	0.541324
1193.32	0.624716
1196.69	1.0071
1200.07	0.79508
1203.44	0.032591
1206.82	0.406515
1210.19	1.08536
1213.57	0.788247
1216.94	0.366414
1220.32	0.539425
1223.69	0.145527
1227.07	0.535645
1230.44	0.677859
1233.82	0.682254
1237.19	0.051323
1240.57	0.089122
1243.94	0.598883
1247.32	0.413807
1250.69	0.755394
1254.06	0.440978
1257.44	0.66672
1260.81	0.106032
1264.19	0.969345
1267.56	0.189124
1270.94	0.858008
1274.31	0.484096
1277.69	1.18878
1281.06	0.149553
