Measurement: Raman, 532 nm, unoriented, Raman Data Processed
Mineral: Manandonite
Rruff sample: R060968
Ideal chemistry: Li_2_Al_4_(Si_2_AlB)O_10_(OH)_8_
Locality: Antandro Komby mine, Manandona River, Antsirabe, Madagascar
Source: Michael Scott
Description: Botryoidal coating of tan colored pseudohexagonal plates on red tourmaline and gray feldspar.
Raman shift (cm-1)	intensity
169.252	0
172.145	102.961
175.037	108.648
177.93	266.486
180.823	463.342
183.715	844.779
186.608	1161.26
189.501	1404.22
192.394	1735.89
195.286	1723.08
198.179	1845.38
201.072	1955.05
203.964	2063.2
206.857	2040.61
209.75	1837.21
212.643	1547.69
215.535	1463.55
218.428	1461.48
221.321	1282.63
224.213	1077.36
227.106	1118.39
229.999	1026.3
232.891	765.816
235.784	726.658
238.677	730.258
241.569	821.068
244.462	1065.72
247.355	983.209
250.248	673.85
253.14	548.033
256.033	399.744
258.926	327.076
261.818	330.273
264.711	504.871
267.604	405.242
270.496	258.723
273.389	251.031
276.282	370.188
279.175	475.193
282.067	334.203
284.96	192.537
287.853	159.506
290.745	156.299
293.638	33.5684
296.531	151.065
299.423	51.2559
302.316	221.414
305.209	395.84
308.101	542.266
310.994	669.453
313.887	850.016
316.78	986.758
319.672	1384.73
322.565	1495.55
325.458	1346.85
328.35	891.361
331.243	718.18
334.136	733.164
337.029	790.178
339.921	1049.72
342.814	1151.99
345.707	1275.94
348.599	1600.7
351.492	1500.29
354.385	1235.14
357.277	1000.59
360.17	820.939
363.063	743.35
365.955	149.324
368.848	36.8242
371.741	72.9629
374.634	12.625
377.526	32.8828
380.419	7.73633
383.312	70.5098
386.204	80.3379
389.097	231.328
391.99	89.0684
394.882	66.7129
397.775	81.7383
400.668	87.3555
403.561	64.7148
406.453	191.33
409.346	398.758
412.239	481.893
415.131	459.387
418.024	483.652
420.917	431.547
423.809	610.318
426.702	521.539
429.595	659.17
432.488	780.354
435.38	1160.02
438.273	951.795
441.166	977.816
444.058	884.787
446.951	744.646
449.844	418.996
452.736	299.469
455.629	140.318
458.522	12.1328
461.415	141.633
464.307	203.309
467.2	403.094
470.093	711.504
472.985	1202.31
475.878	1227.21
478.771	1686.25
481.663	2201.67
484.556	2870.88
487.449	3262.61
490.341	3221.77
493.234	3525.11
496.127	3775.45
499.02	3629.37
501.912	2904
504.805	2457.57
507.698	2139.54
510.59	1811.77
513.483	1441
516.376	1102.04
519.269	784.731
522.161	491.625
525.054	371.906
527.947	140.328
530.839	124.293
533.732	83.2812
536.625	129.68
539.517	19.8398
542.41	179.273
545.303	307.699
548.196	504.801
551.088	380.356
553.981	328.949
556.874	339.539
559.766	157.59
562.659	263.719
565.552	134.891
568.444	4.76172
571.337	191.84
574.23	53.6016
577.122	27.8828
580.015	122.941
582.908	235.445
585.801	435.785
588.693	534.934
591.586	500.801
594.479	576.922
597.371	778.516
600.264	761.742
603.157	908.512
606.049	1169.97
608.942	1326.44
611.835	1330.8
614.728	1386.75
617.62	1510.25
620.513	1499.58
623.406	1475.89
626.298	1433.81
629.191	1307.8
632.084	1100.47
634.976	1014.18
637.869	955.574
640.762	844.688
643.654	733.391
646.547	619.465
649.44	984.758
652.333	969.766
655.225	809.406
658.118	817.152
661.011	576.207
663.903	415.996
666.796	463.555
669.689	408.606
672.582	331.574
675.474	101.133
678.367	6.58594
681.26	240.008
684.152	289.621
687.045	263.144
689.938	145.562
692.83	168.414
695.723	302.34
698.616	19.6523
701.509	39.4766
704.401	95.707
707.294	56.4727
710.187	113.969
713.079	44.0469
715.972	150.523
718.865	123.543
721.757	88.8945
724.65	214.328
727.543	319.254
730.436	35.3672
733.328	33.1875
736.221	153.027
739.114	34.3164
742.006	179.684
744.899	349.594
747.792	381.578
750.684	257.227
753.577	221.793
756.47	480.664
759.362	322.547
762.255	291.391
765.148	424.793
768.041	606.922
770.933	775.461
773.826	765.664
776.719	831.473
779.611	1136.48
782.504	1385.26
785.397	1461.75
788.289	1741.88
791.182	1897.42
794.075	1988.73
796.968	1778.21
799.86	1608.96
802.753	1546.07
805.646	1500.19
808.538	1286.63
811.431	1328.92
814.324	1578.85
817.216	1520.32
820.109	1404.81
823.002	1569.14
825.895	1698.77
828.787	1734.16
831.68	1708.38
834.573	1529.31
837.465	1384.86
840.358	1216.47
843.251	1167.1
846.144	849.762
849.036	616.992
851.929	304.691
854.822	293.547
857.714	301.609
860.607	343.715
863.5	142.894
866.392	144.34
869.285	60.5625
872.178	144.305
875.071	42.3047
877.963	131.598
880.856	152.25
883.749	140.676
886.641	219.469
889.534	358.481
892.427	500.84
895.319	683.285
898.212	659.086
901.105	284.574
903.997	338.156
906.89	204.996
909.783	182.402
912.676	52.5
915.568	13.6719
918.461	139.312
921.354	151.957
924.246	176.762
927.139	130.027
930.032	215.297
932.924	108.434
935.817	136.727
938.71	283.863
941.602	259.488
944.495	291.164
947.388	36.5078
950.281	119.613
953.173	191.953
956.066	128.805
958.959	130.57
961.851	80.332
964.744	31.5703
967.637	44.2344
970.529	72.1016
973.422	72.0625
976.315	186.465
979.208	162.113
982.1	247.086
984.993	54.6641
987.886	100.891
990.778	194.781
993.671	182.832
996.564	326.035
999.457	513.305
1002.35	782.723
1005.24	856.039
1008.13	719.078
1011.03	456.668
1013.92	549.938
1016.81	366.406
1019.71	218.769
1022.6	369.934
1025.49	468.695
1028.38	426.051
1031.28	362.07
1034.17	253.281
1037.06	347.293
1039.95	401.562
1042.85	227.34
1045.74	221.152
1048.63	124.156
1051.53	423.519
1054.42	472.594
1057.31	473.477
1060.2	540.394
1063.1	362.992
1065.99	310.898
1068.88	400.336
1071.77	578.176
1074.67	401.984
1077.56	252.106
1080.45	114.332
1083.35	149.715
1086.24	276.727
1089.13	212.883
1092.02	186.387
1094.92	249.992
1097.81	393.109
1100.7	226.637
1103.59	356.32
1106.49	266.152
1109.38	203.516
1112.27	86.293
1115.16	155.945
1118.06	203.949
1120.95	7.61328
1123.84	96.4648
1126.73	77.082
1129.63	394.766
1132.52	288.394
1135.41	351.184
1138.31	229.137
1141.2	176.438
1144.09	183.406
1146.98	26.4375
1149.88	32.3906
1152.77	238.699
1155.66	264.438
1158.56	47.5938
1161.45	175.289
1164.34	40.0195
1167.23	11.8672
1170.13	61.4688
1173.02	166.637
1175.91	298.191
1178.8	295.598
1181.7	420.883
1184.59	450.496
1187.48	255.684
1190.38	107.137
1193.27	52.8242
1196.16	270.469
1199.05	124.363
1201.94	213.391
1204.84	132.598
1207.73	136.879
1210.62	303.301
1213.52	418.211
1216.41	412.578
1219.3	212.066
1222.19	327.559
1225.09	306.453
1227.98	416.555
1230.87	377.219
1233.77	399.965
1236.66	589.113
1239.55	415.691
1242.44	521.852
1245.34	402.578
1248.23	557.977
1251.12	372.133
1254.01	383.902
1256.91	373.035
1259.8	429.891
1262.69	19.9727
1265.59	2.89062
1268.48	308.707
1271.37	330.152
1274.26	410.227
1277.16	448.594
1280.05	245.117
1282.94	192.34
1285.83	218.801
1288.73	143.418
1291.62	147.535
1294.51	0
