Measurement: Raman, 785 nm, unoriented, Raman Data Processed
Mineral: Manandonite
Rruff sample: R060968
Ideal chemistry: Li_2_Al_4_(Si_2_AlB)O_10_(OH)_8_
Locality: Antandro Komby mine, Manandona River, Antsirabe, Madagascar
Source: Michael Scott
Description: Botryoidal coating of tan colored pseudohexagonal plates on red tourmaline and gray feldspar.
Raman shift (cm-1)	intensity
165.401	0
168.293	28.4102
171.186	115.294
174.079	130.605
176.971	151.02
179.864	226.393
182.757	327.435
185.649	548.145
188.542	877.97
191.435	1083.85
194.328	1342.27
197.22	1567.58
200.113	1667.98
203.006	1711.41
205.898	1645.33
208.791	1539.87
211.684	1348.38
214.577	1206.66
217.469	1068.59
220.362	1089.53
223.255	1039.24
226.147	907.802
229.04	721.346
231.933	603.192
234.825	503.733
237.718	568.154
240.611	651.657
243.504	699.669
246.396	649.202
249.289	512.534
252.182	432.242
255.074	358.63
257.967	309.839
260.86	178.983
263.752	277.541
266.645	252.849
269.538	219.622
272.43	260.675
275.323	177.773
278.216	216.026
281.109	135.084
284.001	130.828
286.894	90.0059
289.787	15.5039
292.679	56.2246
295.572	69.1699
298.465	55.3301
301.358	10.0908
304.25	203.091
307.143	357.36
310.036	623.421
312.928	965.62
315.821	1402.72
318.714	1998.91
321.606	2314.12
324.499	2163.42
327.392	1493.63
330.284	1002.22
333.177	728.888
336.07	660.972
338.962	767.377
341.855	872.682
344.748	1118.4
347.641	1195.41
350.533	1119.82
353.426	1005.92
356.319	836.343
359.211	697.434
362.104	420.677
364.997	161.925
367.889	2.03516
370.782	31.0625
373.675	34.4653
376.568	9.57324
379.46	20.1436
382.353	34.2275
385.246	4.33398
388.138	11.0195
391.031	16.4458
393.924	68.8115
396.817	174.03
399.709	190.763
402.602	223.265
405.495	231.366
408.387	253.54
411.28	334.768
414.173	422.953
417.065	493.707
419.958	434.64
422.851	454.665
425.743	546.691
428.636	562.356
431.529	586.981
434.422	734.951
437.314	943.982
440.207	1039.15
443.1	948.825
445.992	878.594
448.885	746.134
451.778	512.301
454.671	310.817
457.563	172.034
460.456	122.312
463.349	220.295
466.241	348.033
469.134	635.673
472.027	944.954
474.919	1271.91
477.812	1644.77
480.705	2043.23
483.597	2489.12
486.49	2851.49
489.383	3073.66
492.276	3321.79
495.168	3457.78
498.061	3371.41
500.954	2830.11
503.846	2222.3
506.739	1802.46
509.632	1457.13
512.524	1148.84
515.417	898.33
518.31	680.908
521.202	421.451
524.095	234.101
526.988	99.2695
529.881	38.8442
532.773	17.896
535.666	19.4956
538.559	56.9243
541.451	104.701
544.344	206.257
547.237	210.708
550.13	357.191
553.022	376.716
555.915	329.459
558.808	238.19
561.7	129.858
564.593	90.8623
567.486	19.2144
570.378	26.5962
573.271	25.7466
576.164	58.7295
579.057	20.4292
581.949	96.3037
584.842	175.574
587.735	236.261
590.627	310.82
593.52	290.824
596.413	349.755
599.305	310.388
602.198	412.065
605.091	459.364
607.984	468.636
610.876	488.33
613.769	499.404
616.662	476.894
619.554	433.108
622.447	434.794
625.34	364.017
628.232	353.003
631.125	285.838
634.018	211.341
636.91	192.938
639.803	134.827
642.696	154.616
645.589	189.642
648.481	120.864
651.374	74.8428
654.267	118.007
657.159	129.557
660.052	123.523
662.945	84.2554
665.837	61.5249
668.73	39.5508
671.623	65.6509
674.515	7.48047
677.408	62.1841
680.301	75.3394
683.194	10.9736
686.086	43.2036
688.979	17.6216
691.872	11.564
694.764	50.188
697.657	72.3306
700.55	52.0068
703.442	78.2832
706.335	16.3315
709.228	28.7739
712.121	8.60498
715.013	31.5356
717.906	18.4219
720.799	51.4741
723.691	66.4585
726.584	13.0698
729.477	58.4517
732.37	44.2046
735.262	59.9346
738.155	4.59912
741.048	13.1313
743.94	5.61133
746.833	7.21045
749.726	60.4543
752.618	96.8079
755.511	26.4175
758.404	25.9116
761.297	41.7385
764.189	84.0469
767.082	81.615
769.975	146.602
772.867	191.635
775.76	300.175
778.653	315.455
781.545	399.92
784.438	570.554
787.331	622.99
790.223	648.314
793.116	579.207
796.009	513.244
798.902	383.303
801.794	296.509
804.687	199.833
807.58	197.791
810.472	165.038
813.365	107.277
816.258	103.465
819.15	86.7686
822.043	96.6736
824.936	91.5569
827.829	56.1846
830.721	85.2102
833.614	55.4072
836.507	60.7634
839.399	18.7224
842.292	34.6099
845.185	31.4368
848.077	58.3071
850.97	13.1531
853.863	13.0942
856.755	28.2573
859.648	36.8301
862.541	2.79272
865.434	27.7781
868.326	41.4319
871.219	6.48022
874.112	62.7754
877.004	101.357
879.897	101.665
882.79	206.278
885.683	173.095
888.575	247.394
891.468	267.521
894.361	361.794
897.253	321.17
900.146	319.692
903.039	276.97
905.931	287.775
908.824	239.385
911.717	207.754
914.61	109.274
917.502	93.7185
920.395	109.302
923.288	89.6956
926.18	115.788
929.073	51.7822
931.966	48.3477
934.858	137.471
937.751	99.739
940.644	138.39
943.536	185.639
946.429	154.803
949.322	134.74
952.215	117.006
955.107	105.058
958	115.362
960.893	112.493
963.785	77.6069
966.678	73.3899
969.571	40.4504
972.463	7.37817
975.356	26.1982
978.249	6.68042
981.141	24.6209
984.034	1.42065
986.927	46.228
989.82	18.8355
992.712	21.8567
995.605	112.423
998.498	223.924
1001.39	295.255
1004.28	331.752
1007.18	303.363
1010.07	289.7
1012.96	141.631
1015.85	111.899
1018.75	76.3157
1021.64	21.8513
1024.53	7.74512
1027.42	4.84888
1030.32	29.4797
1033.21	23.2803
1036.1	4.55908
1038.99	32.6165
1041.89	3.42114
1044.78	8.98218
1047.67	39.8523
1050.57	90.7517
1053.46	121.939
1056.35	96.4753
1059.24	157.658
1062.14	170.486
1065.03	194.524
1067.92	231.7
1070.82	223.725
1073.71	281.204
1076.6	244.97
1079.49	240.027
1082.39	178.83
1085.28	166.832
1088.17	141.055
1091.06	138.793
1093.96	114.573
1096.85	103.416
1099.74	109.402
1102.63	63.7219
1105.53	74.3157
1108.42	93.0359
1111.31	77.2058
1114.21	79.751
1117.1	100.411
1119.99	65.991
1122.88	68.5808
1125.78	102.398
1128.67	80.3411
1131.56	97.5295
1134.45	58.7918
1137.35	65.9998
1140.24	70.9702
1143.13	70.3389
1146.03	46.2534
1148.92	20.7817
1151.81	39.147
1154.7	39.7996
1157.6	27.5681
1160.49	39.0549
1163.38	14.9717
1166.27	15.9971
1169.17	7.88379
1172.06	13.0574
1174.95	4.76269
1177.85	34.9228
1180.74	15.449
1183.63	45.6487
1186.52	18.896
1189.42	12.4998
1192.31	19.876
1195.2	38.2598
1198.09	60.0261
1200.99	66.6226
1203.88	27.676
1206.77	6.00366
1209.66	4.38208
1212.56	10.5156
1215.45	37.3357
1218.34	58.2029
1221.23	58.9138
1224.13	56.0742
1227.02	36.396
1229.91	64.7839
1232.81	75.9199
1235.7	2.96728
1238.59	13.2007
1241.48	78.4177
1244.38	58.4023
1247.27	87.751
1250.16	86.969
1253.06	44.3601
1255.95	15.2776
1258.84	34.7685
1261.73	39.1829
1264.63	37.55
