Measurement: Raman, 532 nm, unoriented, Raman Data Processed
Mineral: Mangano-ferri-eckermannite
Rruff sample: R070122
Ideal chemistry: NaNa_2_(Mn^2+^_4_Fe^3+^)Si_8_O_22_(OH)_2_
Locality: Tanohata mine, Iwate Prefecture, Tohoku Region, Honshu Island, Japan
Source: Michael Scott
Description: Dark red bladed crystals and cleavages associated with braunite
Measured chemistry: (Na_0.80_K_0.20_)_Σ=1_(Na_1.60_Ca_0.18_Mn^+2^_0.22_)_Σ=2_(Mn^2+^_2.14_Mn^+3^_0.25_Mg_1.61_)_Σ=4_(Fe^3+^_0.27_Al_0.14_Mg_0.59_)_Σ=1_(Si_7.92_Al_0.06_Ti_0.02_)_Σ=8_O_22_((OH)_1.86_F_0.14_)_Σ=2_
Raman shift (cm-1)	intensity
152.11	0
155.003	36.1536
157.895	3.91357
160.788	71.9078
163.681	96.8583
166.574	87.0983
169.466	83.0729
172.359	129.187
175.252	83.4573
178.144	49.2416
181.037	77.4752
183.93	82.1809
186.822	47.3591
189.715	60.7426
192.608	77.4437
195.501	30.4193
198.393	30.3048
201.286	2.29602
204.179	33.4861
207.071	31.175
209.964	40.1028
212.857	6.50867
215.75	39.0081
218.642	46.8543
221.535	69.8942
224.428	20.2401
227.32	67.8929
230.213	23.5397
233.106	106.716
235.999	78.2382
238.891	116.141
241.784	159.873
244.677	207.161
247.569	241.745
250.462	302.607
253.355	316.328
256.247	280.09
259.14	269.056
262.033	238.103
264.925	265.274
267.818	290.054
270.711	288.531
273.604	295.047
276.496	203.798
279.389	196.971
282.282	143.781
285.174	104.773
288.067	124.315
290.96	82.5411
293.853	36.5216
296.745	65.028
299.638	3.95398
302.531	11.4123
305.423	7.81921
308.316	11.5553
311.209	11.781
314.101	18.9653
316.994	47.0403
319.887	115.089
322.779	168.677
325.672	193.306
328.565	190.981
331.458	250.897
334.35	256.009
337.243	281.124
340.136	231.748
343.028	217.801
345.921	185.163
348.814	178.643
351.707	153.003
354.599	125.103
357.492	120.718
360.385	146.087
363.277	89.9208
366.17	107.457
369.063	165.323
371.955	192.991
374.848	173.764
377.741	142.059
380.634	221.869
383.526	128.116
386.419	148.527
389.312	207.338
392.204	185.966
395.097	183.621
397.99	161.27
400.882	111.792
403.775	150.692
406.668	162.234
409.56	124.595
412.453	128.849
415.346	117.244
418.239	68.6039
421.131	19.5758
424.024	36.2144
426.917	56.8238
429.81	29.2388
432.702	0.60611
435.595	24.7473
438.488	131.049
441.38	302.632
444.273	398.315
447.166	598.87
450.058	687.998
452.951	704.675
455.844	768.94
458.736	740.809
461.629	642.84
464.522	551.779
467.415	535.163
470.307	465.081
473.2	425.01
476.093	300.692
478.985	259.02
481.878	137.455
484.771	129.238
487.663	29.6312
490.556	50.5049
493.449	10.3511
496.342	3.1239
499.234	70.0946
502.127	55.9996
505.02	157.449
507.912	200.958
510.805	238.123
513.698	253.388
516.591	259.093
519.483	292.079
522.376	370.403
525.269	330.53
528.161	301.805
531.054	186.262
533.947	139.782
536.839	100.927
539.732	49.9142
542.625	47.9592
545.518	160.339
548.41	266.397
551.303	413.568
554.196	637.7
557.088	783.622
559.981	937.011
562.874	965.356
565.766	914.415
568.659	935.35
571.552	902.457
574.444	1003.09
577.337	1134.78
580.23	1271.25
583.123	1371.11
586.015	1507.18
588.908	1520.26
591.801	1456.42
594.693	1275.62
597.586	1144.28
600.479	967.043
603.372	735.568
606.264	615.622
609.157	390.972
612.05	319.825
614.942	146.621
617.835	109.557
620.728	48.3834
623.62	0.51001
626.513	23.3208
629.406	35.6508
632.299	27.1777
635.191	13.8844
638.084	10.3265
640.977	4.95715
643.869	-8.43736
646.762	29.2396
649.655	73.0329
652.548	101.035
655.44	104.675
658.333	135.582
661.226	200.231
664.118	243.407
667.011	307.201
669.904	405.554
672.796	484.284
675.689	569.885
678.582	685.992
681.475	587.086
684.367	485.316
687.26	313.909
690.153	206.749
693.045	133.243
695.938	90.6741
698.831	90.5414
701.723	12.3829
704.616	48.0049
707.509	17.1769
710.402	28.3524
713.294	81.6968
716.187	125.822
719.08	30.3182
721.972	51.9963
724.865	25.6298
727.758	46.1134
730.65	65.6963
733.543	44.7655
736.436	54.1354
739.329	52.4558
742.221	17.9739
745.114	31.1809
748.007	38.3273
750.899	40.9449
753.792	46.6183
756.685	69.0737
759.577	36.9901
762.47	56.9279
765.363	32.5652
768.256	39.8386
771.148	55.3229
774.041	52.9147
776.934	4.52576
779.826	51.3969
782.719	22.0949
785.612	58.8486
788.505	18.543
791.397	26.6263
794.29	36.5775
797.183	18.7538
800.075	8.31702
802.968	14.2736
805.861	3.03735
808.753	32.3011
811.646	20.9132
814.539	14.0858
817.432	12.9681
820.324	19.3164
823.217	2.54004
826.11	23.6714
829.002	33.8229
831.895	79.7604
834.788	77.0939
837.68	123.965
840.573	192.727
843.466	172.308
846.359	260.051
849.251	296.632
852.144	328.831
855.037	439.357
857.929	536.03
860.822	538.168
863.715	598.366
866.607	592.445
869.5	607.066
872.393	631.518
875.285	583.175
878.178	604.355
881.071	586.201
883.964	468.605
886.856	456.264
889.749	343.358
892.642	306.632
895.534	232.784
898.427	228.614
901.32	154.552
904.212	176.26
907.105	105.982
909.998	136.658
912.891	119.483
915.783	150.053
918.676	109.372
921.569	33.3203
924.461	41.282
927.354	8.66589
930.247	49.8549
933.139	73.3655
936.032	6.22241
938.925	14.619
941.818	19.1525
944.71	35.6774
947.603	2.94946
950.496	9.61499
953.388	8.16101
956.281	1.9563
959.174	10.8975
962.067	30.4945
964.959	25.3334
967.852	37.7496
970.745	26.1233
973.637	4.60852
976.53	41.2874
979.423	3.63367
982.315	33.262
985.208	11.0851
988.101	49.2233
990.994	82.3772
993.886	63.8279
996.779	142.637
999.672	78.8619
1002.56	154.197
1005.46	132.196
1008.35	113.645
1011.24	78.9181
1014.13	64.4003
1017.03	42.5134
1019.92	78.3256
1022.81	83.1859
1025.71	70.9133
1028.6	86.8922
1031.49	135.651
1034.38	111.088
1037.28	111.299
1040.17	136.326
1043.06	143.069
1045.95	151.674
1048.85	101.5
1051.74	113.444
1054.63	167.434
1057.53	140.118
1060.42	159.586
1063.31	181.531
1066.2	241.051
1069.1	277.48
1071.99	337.561
1074.88	356.665
1077.78	384.887
1080.67	295.477
1083.56	232.511
1086.45	154.267
1089.35	178.761
1092.24	56.6173
1095.13	149.397
1098.02	63.1688
1100.92	60.9996
1103.81	43.9791
1106.7	59.4556
1109.59	52.8887
1112.49	4.922
1115.38	3.86231
1118.27	6.76123
1121.16	5.62537
1124.06	11.6882
1126.95	17.059
1129.84	28.2086
1132.74	18.2159
1135.63	1.89758
1138.52	39.6471
1141.41	0.390137
1144.31	23.1971
1147.2	22.075
1150.09	16.4528
1152.98	33.7738
1155.88	29.2533
1158.77	66.8229
1161.66	39.2285
1164.56	18.6759
1167.45	91.6478
1170.34	64.4149
1173.23	79.72
1176.13	51.0315
1179.02	59.6456
1181.91	103.094
1184.81	7.77551
1187.7	77.5708
1190.59	31.9458
1193.48	49.6394
1196.38	15.5269
1199.27	67.5459
1202.16	28.14
1205.05	32.8484
1207.95	17.2301
1210.84	10.4407
1213.73	61.0808
1216.62	46.7915
1219.52	64.4722
1222.41	69.2104
1225.3	32.2814
1228.19	67.1757
1231.09	46.0282
1233.98	12.2065
1236.87	40.2858
1239.77	44.751
1242.66	31.833
1245.55	45.4083
1248.44	43.5852
1251.34	32.5233
1254.23	44.5369
1257.12	32.0532
1260.02	72.8392
1262.91	22.2992
1265.8	39.5907
1268.69	13.5895
1271.59	15.4137
1274.48	36.1886
1277.37	31.7559
1280.26	40.8016
1283.16	16.7692
1286.05	31.3153
1288.94	72.3422
1291.83	17.4412
1294.73	52.6316
1297.62	49.2849
1300.51	21.9062
