Measurement: Raman, 532 nm, unoriented, Raman Data Processed
Mineral: Manganosite
Rruff sample: R060695
Ideal chemistry: Mn^2+^O
Locality: Franklin, New Jersey, USA
Source: Bob Jenkins
Description: Dark green coarse prismatic crystals associated with calcite and red zincite
Measured chemistry: Mn^2+^_1.00_O ; trace amounts of Mg
Raman shift (cm-1)	intensity
172.145	0
175.038	63.474
177.931	29.462
180.823	85.047
183.716	116.782
186.609	118.252
189.501	71.318
192.394	80.146
195.287	30.852
198.18	5.47
201.072	43.229
203.965	37.971
206.858	62.181
209.75	77.149
212.643	48.432
215.536	2.894
218.428	74.311
221.321	17.602
224.214	33.196
227.107	26.615
229.999	57.807
232.892	55.394
235.785	6.088
238.677	78.149
241.57	38.8
244.463	40.146
247.355	31.895
250.248	33.159
253.141	16.637
256.033	28.806
258.926	81.866
261.819	99.018
264.711	106.594
267.604	88.675
270.497	54.626
273.39	78.077
276.282	33.865
279.175	77.127
282.068	43.024
284.96	47.282
287.853	68.844
290.746	22.934
293.638	10.12
296.531	77.048
299.424	65.687
302.317	108.142
305.209	144.776
308.102	130.192
310.995	100.124
313.887	51.673
316.78	73.941
319.673	95.909
322.565	14.029
325.458	75.486
328.351	90.353
331.244	3.456
334.136	42.282
337.029	11.413
339.922	34.727
342.814	9.44
345.707	36.984
348.6	59.799
351.492	37.627
354.385	92.878
357.278	82.483
360.171	64.6
363.063	99.632
365.956	61.54
368.849	24.549
371.741	11.018
374.634	98.714
377.527	10.062
380.419	54.842
383.312	11.586
386.205	26.023
389.098	36.457
391.99	41.817
394.883	44.861
397.776	18.686
400.668	20.098
403.561	7.816
406.454	8.642
409.346	21.159
412.239	0.714
415.132	9.664
418.025	25.013
420.917	0.379
423.81	7.769
426.703	19.036
429.595	40.589
432.488	19.739
435.381	93.092
438.273	141.112
441.166	83.599
444.059	152.169
446.952	124.713
449.844	151.161
452.737	179.443
455.63	200.626
458.522	189.109
461.415	119.487
464.308	152.695
467.2	190.511
470.093	216.772
472.986	197.829
475.878	256.853
478.771	203.175
481.664	285.463
484.556	324.33
487.449	265.237
490.342	260.621
493.235	226.462
496.127	188.127
499.02	217.943
501.913	142.709
504.805	129.802
507.698	160.034
510.591	164.744
513.484	150.212
516.376	175.575
519.269	200.901
522.162	206.556
525.054	221.28
527.947	268.256
530.84	227.351
533.732	157.937
536.625	203.625
539.518	186.127
542.411	155.943
545.303	161.896
548.196	180.814
551.089	104.856
553.981	87.906
556.874	28.383
559.767	82.613
562.659	29.305
565.552	46.402
568.445	59.218
571.338	39.873
574.23	21.559
577.123	30.632
580.016	7.469
582.908	14.052
585.801	38.765
588.694	33.456
591.586	5.037
594.479	80.305
597.372	26.961
600.265	117.617
603.157	193.955
606.05	203.322
608.943	218.254
611.835	202.577
614.728	243.3
617.621	217.768
620.513	214.713
623.406	231.108
626.299	224.936
629.191	246.089
632.084	268.857
634.977	255.269
637.87	285.038
640.762	344.021
643.655	368.332
646.548	460.229
649.44	549.134
652.333	632.166
655.226	627.945
658.118	643.881
661.011	729.844
663.904	510.218
666.797	422.595
669.689	360.54
672.582	227.925
675.474	143.392
678.367	109.16
681.26	35.564
684.153	100.93
687.045	127.47
689.938	45.752
692.831	91.737
695.723	48.319
698.616	55.583
701.509	20.731
704.402	26.294
707.294	23.924
710.187	75.637
713.08	3.302
715.972	23.278
718.865	33.699
721.758	80.364
724.651	83.941
727.543	70.134
730.436	41.424
733.328	61.708
736.221	96.402
739.114	62.832
742.007	141.166
744.899	80.249
747.792	118.417
750.685	107.467
753.577	64.75
756.47	106.644
759.363	103.442
762.255	71.831
765.148	33.196
768.041	77.156
770.934	147.916
773.826	92.847
776.719	111.298
779.612	115.545
782.504	126.365
785.397	161.39
788.29	105.962
791.182	163.49
794.075	139.108
796.968	107.217
799.86	155.363
802.753	97.473
805.646	65.245
808.539	105.659
811.431	128.246
814.324	108.325
817.217	43.653
820.109	103.997
823.002	56.284
825.895	104.808
828.787	136.229
831.68	77.702
834.573	78.639
837.466	22.65
840.358	30.243
843.251	64.443
846.144	23.223
849.036	50.54
851.929	4
854.822	57.237
857.714	29.025
860.607	37.556
863.5	53.355
866.393	88.286
869.285	109.327
872.178	29.751
875.071	44.418
877.963	10.619
880.856	73.925
883.749	5.772
886.641	55.61
889.534	49.064
892.427	133.083
895.32	70.444
898.212	103.249
901.105	100.277
903.998	13.343
906.89	59.002
909.783	3.593
912.676	33.872
915.568	5.157
918.461	11.391
921.354	0.525
924.247	19.166
927.139	89.221
930.032	91.459
932.925	19.232
935.817	18.522
938.71	85.12
941.603	28.665
944.495	72.446
947.388	42.194
950.281	50.366
953.174	15.919
956.066	24.407
958.959	30.524
961.852	14.319
964.744	64.157
967.637	2.163
970.53	31.125
973.422	54.633
976.315	1.415
979.208	39.318
982.101	55.887
984.993	61.067
987.886	49.391
990.779	59.66
993.671	62.85
996.564	76.05
999.457	94.927
1002.35	28.042
1005.24	101.842
1008.13	75.569
1011.03	103.249
1013.92	95.554
1016.81	85.442
1019.71	70.407
1022.6	106.521
1025.49	86.259
1028.38	141.874
1031.28	258.916
1034.17	99.525
1037.06	127.118
1039.95	171.442
1042.85	166.985
1045.74	169.638
1048.63	188.1
1051.53	191.654
1054.42	234.016
1057.31	228.918
1060.2	235.615
1063.1	174.924
1065.99	248.819
1068.88	209.25
1071.77	223.254
1074.67	228.001
1077.56	190.74
1080.45	211.495
1083.35	245.934
1086.24	209.696
1089.13	231.288
1092.02	292.165
1094.92	281.875
1097.81	313.111
1100.7	224.145
1103.59	222.016
1106.49	224.581
1109.38	175.757
1112.27	75.763
1115.16	98.257
1118.06	39.547
1120.95	19.658
1123.84	60.291
1126.73	3.133
1129.63	12.411
1132.52	4.718
1135.41	79.318
1138.31	84.988
1141.2	0.612
1144.09	85.998
1146.98	9.357
1149.88	36.896
1152.77	45.809
1155.66	70.214
1158.56	34.457
1161.45	75.34
1164.34	91.166
1167.23	35.918
1170.13	75.867
1173.02	121.346
1175.91	117.79
1178.8	112.834
1181.7	124.224
1184.59	85.526
1187.48	57.38
1190.38	57.681
1193.27	109.427
1196.16	18.89
1199.05	64.921
1201.94	101.161
1204.84	41.462
1207.73	97.014
1210.62	87.273
1213.52	94.33
1216.41	58.241
1219.3	47.842
1222.19	75.834
1225.09	120.499
1227.98	71.581
1230.87	98.816
1233.77	30.95
1236.66	78.973
1239.55	63.158
1242.44	91.078
1245.34	95.802
1248.23	92.26
1251.12	68.359
1254.01	139.063
1256.91	108.858
1259.8	29.433
1262.69	47.37
1265.59	4.791
1268.48	86.592
1271.37	93.147
1274.26	106.179
1277.16	117.221
1280.05	0.325
1282.94	124.365
1285.83	9.801
1288.73	79.295
1291.62	0.458
1294.51	19.028
1297.4	23.615
1300.3	12.384
