Measurement: Raman, 532 nm, unoriented, Raman Data Processed
Mineral: Manganogrunerite
Rruff sample: R060378
Ideal chemistry: [box]Mn^2+^_2_Fe^2+^_5_Si_8_O_22_(OH)_2_
Locality: Brunsjogruvan (Brunsjo mine), near Hallefors, Orebro, Sweden
Source: Michael Scott
Description: Brown parallel fibers
Measured chemistry: Mn^2+^_2.00_(Fe^2+^_3.30_Mg_1.60_Ca_0.10_)_Î£=5_Si_8.00_O_22_(OH)_2_
Raman shift (cm-1)	intensity
180.709	0
183.602	3.677
186.494	6.97089
189.387	1.94299
192.28	6.60309
195.173	1.39877
198.065	1.40439
200.958	4.70587
203.851	5.48303
206.743	7.51401
209.636	12.746
212.529	15.0439
215.421	12.6651
218.314	14.1961
221.207	10.8326
224.1	8.5045
226.992	8.78185
229.885	4.74635
232.778	1.09471
235.67	0.96608
238.563	4.62628
241.456	1.40742
244.348	2.09232
247.241	3.20319
250.134	3.65829
253.026	3.1342
255.919	1.20264
258.812	6.07867
261.705	11.1274
264.597	6.01325
267.49	8.03914
270.383	6.97876
273.276	11.0292
276.168	13.1485
279.061	6.69786
281.954	14.7547
284.846	8.89
287.739	13.1838
290.632	12.2494
293.524	11.5722
296.417	8.97346
299.31	7.1192
302.202	5.42618
305.095	6.85527
307.988	6.73834
310.881	6.73918
313.773	4.59642
316.666	3.98737
319.559	3.60867
322.451	3.02876
325.344	1.75313
328.237	4.90227
331.13	0.717911
334.022	6.74033
336.915	6.52838
339.808	9.07114
342.7	14.1933
345.593	15.4436
348.486	19.6374
351.378	20.7197
354.271	19.501
357.164	22.9549
360.057	23.1945
362.949	25.3065
365.842	21.9928
368.735	12.8415
371.627	9.94342
374.52	11.1243
377.413	10.1287
380.305	11.2356
383.198	12.274
386.091	12.5543
388.984	17.3272
391.876	18.2465
394.769	19.3829
397.662	19.3719
400.554	21.3246
403.447	17.4973
406.34	15.225
409.233	11.8492
412.125	12.3667
415.018	6.24374
417.911	6.83025
420.803	10.0265
423.696	9.56464
426.589	4.55801
429.481	3.53163
432.374	0.945267
435.267	2.15308
438.159	3.48866
441.052	0.23909
443.945	0.888763
446.838	1.54614
449.73	0.477173
452.623	0.424545
455.516	0.166855
458.409	0.527603
461.301	2.9035
464.194	5.9388
467.087	2.23917
469.979	4.75925
472.872	3.8008
475.765	4.09457
478.657	4.23872
481.55	5.90385
484.443	8.78421
487.336	6.46959
490.228	5.54193
493.121	7.35626
496.014	8.59383
498.906	9.28113
501.799	8.78047
504.692	8.13823
507.584	7.73372
510.477	8.34027
513.37	7.46658
516.263	4.13858
519.155	5.2096
522.048	2.55325
524.941	3.0513
527.833	3.53253
530.726	1.93335
533.619	2.09287
536.511	2.86951
539.404	0.678009
542.297	2.32382
545.19	0.439453
548.082	0.912872
550.975	1.63766
553.868	4.50763
556.76	5.24689
559.653	10.2851
562.546	9.60764
565.438	12.2919
568.331	10.1005
571.224	12.9445
574.117	16.106
577.009	16.3614
579.902	16.2269
582.795	12.4058
585.687	13.751
588.58	15.8488
591.473	15.6867
594.365	12.1721
597.258	11.6585
600.151	11.7555
603.044	9.81021
605.936	12.2113
608.829	12.1057
611.722	14.3356
614.614	14.8941
617.507	13.919
620.4	15.0518
623.293	16.1352
626.185	20.1208
629.078	23.2701
631.971	25.2345
634.863	27.3571
637.756	29.8893
640.649	37.6538
643.542	51.638
646.434	66.3726
649.327	85.3256
652.22	112.4
655.112	145.414
658.005	172.228
660.898	176.318
663.79	151.597
666.683	107.249
669.576	72.6263
672.468	44.2638
675.361	32.033
678.254	24.9132
681.147	13.4146
684.039	11.1981
686.932	9.19217
689.825	7.64252
692.717	2.94724
695.61	2.84463
698.503	1.47171
701.396	0.03949
704.288	1.86465
707.181	0.34761
710.074	2.79585
712.966	1.08247
715.859	0.002472
718.752	1.96973
721.644	0.0793
724.537	2.04587
727.43	0.849625
730.323	0.926331
733.215	1.57294
736.108	2.09662
739.001	8.19025
741.893	6.05019
744.786	5.2859
747.679	7.87305
750.572	4.21147
753.464	5.36024
756.357	7.96104
759.25	5.33308
762.142	5.14311
765.035	4.22853
767.928	5.24029
770.82	4.02046
773.713	6.81488
776.606	1.8911
779.499	4.49107
782.391	6.14847
785.284	1.14311
788.177	2.00885
791.069	2.42795
793.962	2.73465
796.855	3.43906
799.747	5.39612
802.64	2.5444
805.533	5.77008
808.426	5.60458
811.318	0.209427
814.211	2.51532
817.104	3.93359
819.996	3.54805
822.889	5.36852
825.782	4.47633
828.674	5.1562
831.567	5.11494
834.46	3.89712
837.353	3.93866
840.245	2.20486
843.138	1.36343
846.031	1.94884
848.923	2.11119
851.816	5.38297
854.709	1.47704
857.601	4.34656
860.494	0.975601
863.387	0.405212
866.28	3.00134
869.172	1.42264
872.065	3.39174
874.958	2.24944
877.851	1.51207
880.743	0.335449
883.636	2.64525
886.529	3.46918
889.421	2.01634
892.314	2.28168
895.207	1.75539
898.099	4.92737
900.992	5.37758
903.885	4.45369
906.778	5.53477
909.67	7.55113
912.563	5.70209
915.456	4.00056
918.348	3.37459
921.241	4.71327
924.134	4.66475
927.026	0.146561
929.919	0.581818
932.812	0.069534
935.705	2.10555
938.597	0.963699
941.49	0.727066
944.383	2.16067
947.275	0.990295
950.168	0.5289
953.061	2.60971
955.953	4.9886
958.846	3.36295
961.739	6.17482
964.631	6.03363
967.524	10.0855
970.417	9.25137
973.31	9.33609
976.202	9.4408
979.095	9.21712
981.988	6.94511
984.88	6.7764
987.773	11.0534
990.666	11.1232
993.559	13.5449
996.451	10.7338
999.344	12.6367
1002.24	12.5056
1005.13	12.8838
1008.02	13.9457
1010.91	16.0865
1013.81	25.8353
1016.7	34.1628
1019.59	39.6144
1022.49	47.3923
1025.38	51.3432
1028.27	42.2339
1031.16	36.0244
1034.06	25.3812
1036.95	17.7679
1039.84	11.4071
1042.73	10.5242
1045.63	8.0885
1048.52	4.08603
1051.41	0.656036
1054.31	0.378021
1057.2	0.951904
1060.09	0.161377
1062.98	0.995544
1065.88	1.00299
1068.77	0.116913
1071.66	3.55826
1074.55	3.66025
1077.45	3.08695
1080.34	3.76001
1083.23	5.63681
1086.12	6.6806
1089.02	6.92285
1091.91	6.9119
1094.8	5.15161
1097.7	2.42032
1100.59	2.5589
1103.48	0.363312
1106.37	0.094452
1109.27	0.297119
1112.16	4.14514
1115.05	2.43274
1117.94	1.53097
1120.84	3.11447
1123.73	0.548309
1126.62	3.83551
1129.52	4.79163
1132.41	2.10635
1135.3	0.593262
1138.19	4.05548
1141.09	3.14413
1143.98	1.37115
1146.87	1.74155
1149.77	4.43814
1152.66	2.55301
1155.55	2.3682
1158.44	1.43271
1161.34	4.22177
1164.23	3.0195
1167.12	2.70087
1170.01	2.83972
1172.91	3.87268
1175.8	4.74823
1178.69	4.02786
1181.58	1.66013
1184.48	1.84131
1187.37	3.14557
1190.26	2.6029
1193.15	3.77084
1196.05	3.33228
1198.94	5.3721
1201.83	3.37924
1204.73	2.43869
1207.62	3.59888
1210.51	2.83548
1213.4	3.11093
1216.3	4.61893
1219.19	4.21994
1222.08	0.961365
1224.97	2.74026
1227.87	1.7587
1230.76	3.85111
1233.65	2.74951
1236.55	3.0177
1239.44	2.11493
1242.33	1.64868
1245.22	0.71405
1248.12	0.292938
1251.01	3.3609
1253.9	2.59769
1256.8	0.254822
1259.69	0.669739
1262.58	4.52463
1265.47	2.04791
1268.37	1.75574
1271.26	1.85983
1274.15	2.44415
1277.04	4.58911
1279.94	2.953
1282.83	3.38409
1285.72	3.52151
1288.61	1.46283
1291.51	4.31366
1294.4	2.38574
1297.29	1.18634
1300.18	0.078339
