Measurement: Raman, 785 nm, unoriented, Raman Data Processed
Mineral: Mangano-ferri-eckermannite
Rruff sample: R070122
Ideal chemistry: NaNa_2_(Mn^2+^_4_Fe^3+^)Si_8_O_22_(OH)_2_
Locality: Tanohata mine, Iwate Prefecture, Tohoku Region, Honshu Island, Japan
Source: Michael Scott
Description: Dark red bladed crystals and cleavages associated with braunite
Measured chemistry: (Na_0.80_K_0.20_)_Σ=1_(Na_1.60_Ca_0.18_Mn^+2^_0.22_)_Σ=2_(Mn^2+^_2.14_Mn^+3^_0.25_Mg_1.61_)_Σ=4_(Fe^3+^_0.27_Al_0.14_Mg_0.59_)_Σ=1_(Si_7.92_Al_0.06_Ti_0.02_)_Σ=8_O_22_((OH)_1.86_F_0.14_)_Σ=2_
Raman shift (cm-1)	intensity
181.093	0
183.985	25.2192
186.878	48.979
189.771	95.2153
192.663	182.874
195.556	53.7231
198.449	89.4268
201.341	141.48
204.234	174.701
207.127	110.697
210.019	161.459
212.912	88.6841
215.805	129.255
218.698	194.33
221.59	207.882
224.483	151.206
227.376	130.055
230.268	117.627
233.161	56.5898
236.054	67.188
238.946	72.2202
241.839	77.6187
244.732	7.70361
247.625	18.3242
250.517	66.5913
253.41	7.33984
256.303	115.856
259.195	70.9609
262.088	16.9731
264.981	33.1562
267.873	10.0547
270.766	49.7983
273.659	56.0977
276.552	33.9385
279.444	16.6611
282.337	46.3706
285.23	39.8935
288.122	129.753
291.015	119.646
293.908	103.272
296.8	107.764
299.693	65.9131
302.586	55.479
305.478	30.356
308.371	25.5659
311.264	1.37061
314.157	13.3648
317.049	76.4648
319.942	16.4712
322.835	69.0293
325.727	36.335
328.62	89.2412
331.513	66.6269
334.406	89.6118
337.298	76.9048
340.191	50.3584
343.084	148.857
345.976	52.2822
348.869	96.8857
351.762	85.8555
354.654	26.6255
357.547	7.771
360.44	17.2231
363.333	42.73
366.225	74.0493
369.118	15.479
372.011	99.1103
374.903	123.155
377.796	171.349
380.689	94.5386
383.582	113.72
386.474	258.272
389.367	129.209
392.26	105.47
395.152	64.6948
398.045	99.2642
400.938	57.4605
403.83	96.0352
406.723	77.7261
409.616	45.9522
412.508	6.63721
415.401	16.2554
418.294	25.0483
421.187	30.5322
424.079	52.3218
426.972	13.4292
429.865	35.6445
432.757	1.91797
435.65	36.271
438.543	34.6626
441.435	55.0215
444.328	79.3682
447.221	59.7993
450.113	136.886
453.006	229.576
455.899	243.236
458.792	259.872
461.684	325.362
464.577	308.519
467.47	329.237
470.362	312.227
473.255	206.713
476.148	176.333
479.041	101.04
481.933	120.098
484.826	28.4062
487.719	72.7432
490.611	58.7534
493.504	107.445
496.397	50.7725
499.289	79.9731
502.182	47.0796
505.075	42.3916
507.967	112.984
510.86	156.661
513.753	69.3311
516.646	78.5644
519.538	136.985
522.431	97.9185
525.324	94.6973
528.216	52.9507
531.109	67.5147
534.002	71.874
536.894	51.062
539.787	3.92285
542.68	6.18701
545.573	4.31543
548.465	67.5576
551.358	37.3545
554.251	84.6958
557.143	160.282
560.036	174.173
562.929	177.065
565.822	212.04
568.714	177.576
571.607	159.975
574.5	89.8115
577.392	200.132
580.285	195.085
583.178	253.96
586.07	242.314
588.963	328.334
591.856	348.679
594.749	268.655
597.641	342.978
600.534	232.583
603.427	171.176
606.319	150.726
609.212	131.693
612.105	120.399
614.997	64.1743
617.89	29.4028
620.783	0.644043
623.676	34.0352
626.568	36.9551
629.461	15.3501
632.354	77.1094
635.246	20.6357
638.139	3.68897
641.032	42.3818
643.924	7.4165
646.817	51.4517
649.71	24.0977
652.602	66.8062
655.495	90.3203
658.388	64.1289
661.281	86.1206
664.173	119.103
667.066	86.8481
669.959	195.196
672.851	295.993
675.744	321.166
678.637	408.363
681.529	428.178
684.422	342.119
687.315	212.275
690.208	240.029
693.1	114.999
695.993	104.368
698.886	161.212
701.778	93.6206
704.671	33.9605
707.564	85.1021
710.457	61.7075
713.349	91.3599
716.242	55.8345
719.135	81.2036
722.027	60.501
724.92	70.8354
727.813	51.7324
730.705	111.071
733.598	51.3599
736.491	5.17041
739.384	67.8901
742.276	14.5786
745.169	4.77441
748.062	85.2627
750.954	59.978
753.847	35.3306
756.74	33.3257
759.632	8.83398
762.525	18.9194
765.418	39.917
768.31	26.3701
771.203	2.22266
774.096	9.10498
776.989	49.8755
779.881	78.5635
782.774	113.405
785.667	123.562
788.559	65.6602
791.452	60.002
794.345	20.6694
797.237	29.2764
800.13	51.1875
803.023	22.1865
805.915	16.9092
808.808	45.9175
811.701	83.6631
814.594	17.8491
817.486	48.4243
820.379	44.6475
823.272	29.1729
826.164	8.63086
829.057	59.9614
831.95	14.479
834.842	1.82422
837.735	101.109
840.628	41.2148
843.521	77.3511
846.413	28.4751
849.306	77.1455
852.199	64.8218
855.091	92.7686
857.984	75.2637
860.877	87.5527
863.769	102.074
866.662	111.278
869.555	156.53
872.448	224.748
875.34	184.958
878.233	173.64
881.126	196.081
884.018	190.649
886.911	288.883
889.804	231.486
892.697	206.623
895.589	178.416
898.482	180.659
901.375	143.085
904.267	159.375
907.16	93.7266
910.053	90.2468
912.945	14.6111
915.838	76.7471
918.731	4.24756
921.624	8.06494
924.516	27.7493
927.409	29.2039
930.302	22.8911
933.194	12.6931
936.087	37.3706
938.98	56.8638
941.872	66.1272
944.765	0.767334
947.658	38.0832
950.551	41.2222
953.443	15.3728
956.336	89.02
959.229	60.1855
962.121	21.4773
965.014	25.3955
967.907	55.063
970.799	6.66504
973.692	24.7073
976.585	1.0061
979.477	39.2105
982.37	52.1797
985.263	27.7817
988.156	13.0757
991.048	18.4341
993.941	90.3413
996.834	85.8232
999.726	55.7043
1002.62	81.0625
1005.51	74.4512
1008.4	165.148
1011.3	46.3086
1014.19	86.948
1017.08	80.4824
1019.98	74.8035
1022.87	92.823
1025.76	80.0081
1028.65	8.77246
1031.55	24.5117
1034.44	26.0059
1037.33	42.3025
1040.22	45.3911
1043.12	73.1956
1046.01	43.3916
1048.9	53.7637
1051.8	53.7078
1054.69	57.7769
1057.58	104.608
1060.47	85.5606
1063.37	88.9731
1066.26	65.5112
1069.15	69.6773
1072.04	116.693
1074.94	139.934
1077.83	145.479
1080.72	89.1799
1083.62	134.777
1086.51	82.0974
1089.4	80.4265
1092.29	29.0732
1095.18	56.4424
1098.08	59.1204
1100.97	47.0503
1103.86	32.4778
1106.76	48.124
1109.65	18.5686
1112.54	5.89453
1115.43	19.5405
1118.33	28.0925
1121.22	7.37402
1124.11	75.0427
1127.01	19.5769
1129.9	25.7144
1132.79	13.2812
1135.68	14.0452
1138.58	28.4456
1141.47	18.9768
1144.36	47.9922
1147.25	5.56616
1150.15	108.749
1153.04	61.7629
1155.93	10.3628
1158.83	24.5308
1161.72	58.8469
1164.61	2.10449
1167.5	58.9524
1170.4	54.2065
1173.29	66.0303
1176.18	32.4556
1179.07	49.8235
1181.97	73.6001
1184.86	47.3552
1187.75	22.0584
1190.64	45.5979
1193.54	66.7375
1196.43	43.3582
1199.32	23.3689
1202.21	37.6377
1205.11	33.9844
1208	12.5247
1210.89	16.2544
1213.79	14.5635
1216.68	83.1028
1219.57	58.1531
1222.46	74.8862
1225.36	38.9104
1228.25	29.4761
1231.14	17.0706
