Measurement: Raman, 780 nm, unoriented, Raman Data Processed
Mineral: Manganogrunerite
Rruff sample: R060378
Ideal chemistry: [box]Mn^2+^_2_Fe^2+^_5_Si_8_O_22_(OH)_2_
Locality: Brunsjogruvan (Brunsjo mine), near Hallefors, Orebro, Sweden
Source: Michael Scott
Description: Brown parallel fibers
Measured chemistry: Mn^2+^_2.00_(Fe^2+^_3.30_Mg_1.60_Ca_0.10_)_Î£=5_Si_8.00_O_22_(OH)_2_
Raman shift (cm-1)	intensity
132.55	0
135.442	2.22334
138.335	2.08417
141.228	2.05046
144.12	2.2305
147.013	3.86946
149.906	4.95023
152.798	13.463
155.691	13.4251
158.584	11.3984
161.477	11.5537
164.369	9.20058
167.262	13.9555
170.155	16.5701
173.047	20.0315
175.94	22.8355
178.833	25.7502
181.726	24.3152
184.618	21.4549
187.511	20.16
190.404	14.0244
193.296	8.84239
196.189	11.4323
199.082	7.76709
201.974	9.65183
204.867	5.51489
207.76	5.92667
210.652	6.40439
213.545	4.63307
216.438	6.32639
219.331	3.91196
222.223	3.13617
225.116	3.07909
228.009	1.5734
230.901	0.057541
233.794	1.17154
236.687	0.482635
239.579	0.211731
242.472	1.27287
245.365	1.7457
248.257	1.12322
251.15	3.43254
254.043	0.572556
256.936	0.259888
259.828	0.317368
262.721	1.88145
265.614	0.051346
268.506	0.98317
271.399	2.55127
274.292	4.80177
277.185	3.36224
280.077	0.962067
282.97	3.77199
285.863	4.5069
288.755	4.49367
291.648	3.77232
294.541	5.50813
297.433	5.3306
300.326	2.31648
303.219	4.13005
306.111	2.34557
309.004	5.58325
311.897	1.89949
314.79	3.95433
317.682	1.97043
320.575	1.24698
323.468	2.37752
326.36	3.42728
329.253	4.37178
332.146	2.18247
335.038	6.11726
337.931	5.4171
340.824	5.97855
343.717	8.79872
346.609	6.63174
349.502	9.41051
352.395	9.35442
355.287	8.02782
358.18	3.09908
361.073	8.00784
363.965	6.96225
366.858	5.69797
369.751	5.55951
372.644	5.63495
375.536	3.36552
378.429	2.88791
381.322	3.95676
384.214	4.83849
387.107	3.40506
390	5.91775
392.892	6.62256
395.785	6.7545
398.678	6.04492
401.57	7.97665
404.463	7.04056
407.356	6.30257
410.249	5.19205
413.141	4.37322
416.034	3.31364
418.927	2.46262
421.819	4.72938
424.712	2.84764
427.605	2.95552
430.498	1.19064
433.39	0.219666
436.283	2.20082
439.176	1.46262
442.068	0.383865
444.961	0.642395
447.854	1.49124
450.746	0.121857
453.639	2.64517
456.532	1.39619
459.425	1.07443
462.317	1.08842
465.21	1.18881
468.103	0.794846
470.995	0.598358
473.888	2.94331
476.781	2.09973
479.673	2.44783
482.566	2.76265
485.459	0.937012
488.351	2.30354
491.244	0.241272
494.137	3.14853
497.029	3.76259
499.922	2.55786
502.815	2.98633
505.708	4.30325
508.6	5.00253
511.493	6.03645
514.386	7.09749
517.278	4.20879
520.171	5.9958
523.064	5.76343
525.957	3.32997
528.849	4.27411
531.742	3.48195
534.635	0.394547
537.527	3.11337
540.42	1.86404
543.313	3.06293
546.205	0.397156
549.098	0.478424
551.991	0.739883
554.884	1.33256
557.776	2.11287
560.669	1.91338
563.562	0.662949
566.454	1.05129
569.347	0.547119
572.24	2.16887
575.132	2.35828
578.025	2.37776
580.918	0.291855
583.811	1.85974
586.703	0.591522
589.596	2.23672
592.489	3.75961
595.381	2.99264
598.274	1.58527
601.167	1.86636
604.059	4.5257
606.952	4.44132
609.845	4.31006
612.737	7.07663
615.63	6.97823
618.523	7.4443
621.416	6.31381
624.308	8.18091
627.201	8.00781
630.094	12.6074
632.986	13.8381
635.879	14.5139
638.772	18.0141
641.664	22.0098
644.557	29.1626
647.45	35.9911
650.342	42.1692
653.235	45.801
656.128	53.346
659.021	54.0707
661.913	47.6577
664.806	36.1295
667.699	26.0895
670.591	18.4958
673.484	11.6857
676.377	8.79076
679.269	8.16664
682.162	6.29796
685.055	4.3504
687.948	2.88875
690.84	2.34285
693.733	0.699265
696.626	0.778656
699.518	2.42075
702.411	1.4363
705.304	1.41798
708.197	2.18417
711.089	0.556061
713.982	0.133987
716.875	0.700546
719.767	1.8828
722.66	0.353851
725.553	2.54445
728.445	0.941177
731.338	1.20721
734.231	1.452
737.124	3.68596
740.016	1.60865
742.909	3.84451
745.802	0.945938
748.694	3.04935
751.587	2.27991
754.48	1.69536
757.372	0.118263
760.265	0.656898
763.158	0.735954
766.051	1.43798
768.943	1.44789
771.836	2.88747
774.729	2.9612
777.621	3.17148
780.514	1.70299
783.407	2.35798
786.299	0.45652
789.192	1.69273
792.085	2.54332
794.977	3.88773
797.87	1.01956
800.763	2.71007
803.655	1.8271
806.548	0.295601
809.441	0.324379
812.334	1.15033
815.226	2.54082
818.119	2.85983
821.012	2.94812
823.904	2.40457
826.797	3.73423
829.69	3.11305
832.582	1.85482
835.475	1.66661
838.368	2.18904
841.261	2.54313
844.153	1.09013
847.046	1.75012
849.939	2.06323
852.831	0.819496
855.724	2.1616
858.617	1.85037
861.51	1.60761
864.402	3.07745
867.295	1.53919
870.188	2.30191
873.08	0.267021
875.973	0.516258
878.866	0.748604
881.758	1.63401
884.651	1.35325
887.544	2.00394
890.437	2.42369
893.329	1.45637
896.222	2.73002
899.115	3.20773
902.007	0.331482
904.9	1.01195
907.793	1.65447
910.685	1.40703
913.578	2.78645
916.471	3.97753
919.364	1.07033
922.256	0.166061
925.149	0.13427
928.042	2.03604
930.934	1.1965
933.827	1.09842
936.72	1.87373
939.612	0.983421
942.505	1.88813
945.398	3.40323
948.29	2.18497
951.183	1.77306
954.076	2.20153
956.968	2.6199
959.861	1.24641
962.754	1.68434
965.647	2.40997
968.539	4.29472
971.432	0.381691
974.325	1.69128
977.217	0.281075
980.11	0.143639
983.003	4.02601
985.895	2.23431
988.788	4.72351
991.681	4.17823
994.574	4.32735
997.466	4.92053
1000.36	2.14299
1003.25	5.15935
1006.14	4.0521
1009.04	4.49029
1011.93	8.13512
1014.82	10.4823
1017.72	11.2105
1020.61	12.9871
1023.5	13.5955
1026.39	13.6237
1029.29	11.791
1032.18	11.6297
1035.07	7.85128
1037.96	5.95519
1040.86	3.23862
1043.75	2.90513
1046.64	1.11987
1049.54	2.45823
1052.43	1.87302
1055.32	0.509506
1058.21	0.176292
1061.11	2.29749
1064	0.083672
1066.89	1.34689
1069.78	0.85231
1072.68	0.368683
1075.57	2.96746
1078.46	1.13156
1081.35	1.54905
1084.25	0.836777
1087.14	1.6415
1090.03	2.27461
1092.92	0.848152
1095.82	0.460716
1098.71	1.63301
1101.6	1.25082
1104.5	2.45023
1107.39	0.2957
1110.28	0.503288
1113.17	2.27376
1116.07	3.39613
1118.96	2.3406
1121.85	0.614868
1124.74	3.66124
1127.64	2.88551
1130.53	0.539742
1133.42	3.18709
1136.32	2.17343
1139.21	3.99346
1142.1	2.50987
1144.99	0.313919
1147.89	2.16351
1150.78	2.95875
1153.67	5.01695
1156.57	1.42261
1159.46	3.41581
1162.35	5.31646
1165.24	2.30105
1168.13	2.37849
1171.03	2.80618
1173.92	4.65697
1176.81	1.43585
1179.71	3.01427
1182.6	2.23005
1185.49	2.30007
1188.38	3.76092
1191.28	3.52019
1194.17	3.77763
1197.06	3.52537
1199.95	4.32812
1202.85	4.4052
1205.74	0.8657
1208.63	1.29603
1211.53	2.0192
1214.42	2.70808
1217.31	1.24619
1220.2	0.722115
1223.1	3.66198
1225.99	2.51569
1228.88	0.043602
1231.78	1.84498
1234.67	4.56456
1237.56	4.64002
1240.45	0.885223
1243.35	1.31657
1246.24	1.90723
1249.13	1.34787
1252.02	2.02777
1254.92	2.54303
1257.81	2.75114
1260.7	1.33985
1263.59	3.06184
1266.49	1.15772
1269.38	0.029076
1272.27	2.70834
1275.16	1.78092
1278.06	1.09332
1280.95	2.25331
1283.84	0.787407
