Measurement: Raman, 532 nm, unoriented, Raman Data Processed
Mineral: Manganohornesite
Rruff sample: R061005
Ideal chemistry: Mn^2+^_3_(As^5+^O_4_)_2_8H_2_O
Locality: Mossgruven, Nordmark, Sweden
Source: Michael Scott
Description: Aggregate of colorless platy crystals
Raman shift (cm-1)	intensity
128.754	0
131.647	41.7537
134.539	60.7165
137.432	278.289
140.325	531.252
143.217	525.033
146.11	534.61
149.003	425.091
151.895	263.367
154.788	365.973
157.681	408.049
160.574	489.418
163.466	620.302
166.359	487.59
169.252	512.985
172.144	478.135
175.037	506.172
177.93	528.247
180.822	526.819
183.715	497.685
186.608	448.145
189.501	563.942
192.393	402.456
195.286	446.164
198.179	439.207
201.071	420.701
203.964	418.441
206.857	404.193
209.75	440.69
212.642	393.642
215.535	405.756
218.428	355.759
221.32	324.7
224.213	353.063
227.106	345.656
229.998	315.357
232.891	316.936
235.784	386.75
238.676	243.369
241.569	359.144
244.462	383.828
247.355	373.018
250.247	404.149
253.14	200.9
256.033	213.376
258.925	216.592
261.818	231.801
264.711	206.652
267.603	154.396
270.496	27.5918
273.389	130.133
276.281	150.776
279.174	141.244
282.067	94.4624
284.96	33.8113
287.852	16.5654
290.745	3.7854
293.638	30.2854
296.53	60.1821
299.423	28.6426
302.316	43.2595
305.209	2.74976
308.101	20.8359
310.994	99.4653
313.887	52.6226
316.779	21.4531
319.672	61.5835
322.565	159.354
325.457	312.421
328.35	338.951
331.243	338.514
334.135	396.775
337.028	412.83
339.921	428.641
342.814	392.574
345.706	417.497
348.599	424.425
351.492	445.353
354.384	442.032
357.277	464.157
360.17	560.99
363.062	495.3
365.955	481.117
368.848	521.191
371.741	601.352
374.633	530.133
377.526	556.307
380.419	554.257
383.311	510.133
386.204	337.183
389.097	175.322
391.99	184.98
394.882	101.845
397.775	146.548
400.668	19.3379
403.56	97.5249
406.453	183.703
409.346	258.8
412.238	409.941
415.131	414.19
418.024	404.975
420.916	414.542
423.809	494.718
426.702	463.783
429.594	419.526
432.487	425.513
435.38	383.281
438.273	384.978
441.165	400.21
444.058	357.622
446.951	352.397
449.843	374.556
452.736	414.263
455.629	460.815
458.522	435.156
461.414	407.055
464.307	373.541
467.2	395.845
470.092	499.201
472.985	406.327
475.878	259.026
478.77	316.622
481.663	248.506
484.556	264.32
487.449	160.553
490.341	152.841
493.234	48.1665
496.127	62.2163
499.019	23.6304
501.912	60.4692
504.805	56.001
507.697	42.3921
510.59	6.80225
513.483	0.500488
516.375	31.3208
519.268	7.55322
522.161	14.4775
525.054	58.3994
527.946	20.4155
530.839	3.68213
533.732	20.2217
536.624	91.2622
539.517	101.036
542.41	114.761
545.303	197.779
548.195	228.414
551.088	246.833
553.981	284.534
556.873	365.765
559.766	456.86
562.659	421.742
565.551	449.322
568.444	494.982
571.337	387.819
574.23	349.529
577.122	370.743
580.015	314.223
582.908	237.465
585.8	184.986
588.693	189.501
591.586	158.504
594.478	102.666
597.371	64.478
600.264	194.231
603.157	95.2188
606.049	170.643
608.942	129.057
611.835	156.471
614.727	202.171
617.62	94.0806
620.513	238.274
623.405	209.496
626.298	232.433
629.191	150.49
632.083	235.7
634.976	247.747
637.869	300.877
640.761	183.208
643.654	328.971
646.547	224.887
649.44	276.4
652.332	297.61
655.225	254.025
658.118	227.438
661.01	186.27
663.903	200.279
666.796	278.628
669.688	211.559
672.581	224.742
675.474	183.219
678.367	199.605
681.259	194.269
684.152	273.092
687.045	198.506
689.937	263.175
692.83	210.359
695.723	271.163
698.615	293.138
701.508	264.91
704.401	264.685
707.294	239.085
710.186	169.568
713.079	190.451
715.972	165.515
718.864	158.876
721.757	83.2031
724.65	109.923
727.543	18.5027
730.435	51.416
733.328	11.2117
736.221	48.4131
739.113	49.4592
742.006	60.0928
744.899	91.1975
747.791	8.79199
750.684	48.6421
753.577	107.819
756.47	132.186
759.362	71.9004
762.255	37.5776
765.148	84.8867
768.04	169.99
770.933	170.77
773.826	388.102
776.718	567.784
779.611	797.904
782.504	1075.69
785.396	1429.3
788.289	1917.38
791.182	2247.45
794.075	2646.27
796.967	2950.62
799.86	3160.7
802.753	3596.94
805.645	4220.04
808.538	4881.11
811.431	5454.89
814.323	5738.44
817.216	5676.37
820.109	5382.56
823.002	4915.57
825.894	4431.19
828.787	4096.25
831.68	3902.81
834.572	3743.47
837.465	3882.78
840.358	4081.03
843.25	4479.7
846.143	4923.64
849.036	5420.35
851.929	5741.28
854.821	6293.41
857.714	6665.05
860.607	6688.86
863.499	6307.16
866.392	5281.03
869.285	4241.11
872.178	3381.63
875.07	2625.4
877.963	2151.06
880.856	1763.28
883.748	1491.58
886.641	1291.79
889.534	1125.74
892.426	874.905
895.319	819.634
898.212	671.162
901.104	560.116
903.997	471.001
906.89	420.16
909.783	321.293
912.675	297.63
915.568	212.486
918.461	193.504
921.353	133.631
924.246	105.466
927.139	69.9824
930.031	6.94434
932.924	32.0698
935.817	81.7056
938.71	126.614
941.602	82.1836
944.495	88.3516
947.388	51.9927
950.28	13.6997
953.173	11.0254
956.066	60.0767
958.958	29.6899
961.851	24.062
964.744	148.121
967.636	135.02
970.529	165.33
973.422	226.28
976.315	230.081
979.207	246.403
982.1	290.359
984.993	255.44
987.885	372.259
990.778	288.982
993.671	323.455
996.563	329.001
999.456	306.334
1002.35	343.982
1005.24	280.877
1008.13	259.519
1011.03	270.225
1013.92	220.105
1016.81	223.462
1019.71	217.542
1022.6	254.977
1025.49	266.02
1028.38	242.344
1031.28	196.716
1034.17	321.144
1037.06	291.295
1039.95	161.194
1042.85	204.754
1045.74	137.56
1048.63	134.139
1051.53	209.111
1054.42	274.84
1057.31	105.649
1060.2	155.635
1063.1	144.395
1065.99	149.823
1068.88	117.158
1071.77	199.989
1074.67	89.8101
1077.56	154.458
1080.45	9.87695
1083.34	99.3076
1086.24	97.2808
1089.13	58.7051
1092.02	138.48
1094.91	71.1704
1097.81	176.101
1100.7	137.524
1103.59	155.125
1106.49	172.431
1109.38	131.304
1112.27	117.092
1115.16	80.041
1118.06	86.2954
1120.95	22.1611
1123.84	62.2969
1126.73	51.8252
1129.63	43.8525
1132.52	49.9829
1135.41	18.3857
1138.31	26.4233
1141.2	78.8144
1144.09	15.749
1146.98	40.3735
1149.88	96.2134
1152.77	19.6255
1155.66	86.5249
1158.56	131.046
1161.45	147.189
1164.34	53.5737
1167.23	59.0059
1170.12	46.8184
1173.02	84.5708
1175.91	130.407
1178.8	159.386
1181.7	160.308
1184.59	26.0898
1187.48	37.5855
1190.37	45.5
1193.27	46.9429
1196.16	77.4849
1199.05	41.4678
1201.94	39.8232
1204.84	4.21143
1207.73	97.5698
1210.62	70.1943
1213.52	18.8667
