Measurement: Raman, 532 nm, unoriented, Raman Data Processed
Mineral: Manganilvaite
Rruff sample: R070334
Ideal chemistry: CaFe^2+^Fe^3+^Mn^2+^(Si_2_O_7_)O(OH)
Locality: First Sovetskiy mine, Dalnegorsk, Far East of Russia
Source: Michael Scott
Description: Black prismatic crystal
Raman shift (cm-1)	intensity
159.304	0
162.197	6.8042
165.09	22.218
167.982	19.5192
170.875	33.582
173.768	31.4684
176.66	35.1279
179.553	63.1929
182.446	52.2612
185.339	98.4356
188.231	120.719
191.124	121.92
194.017	156.906
196.909	154.714
199.802	142.668
202.695	145.288
205.587	112.122
208.48	135.635
211.373	94.4012
214.266	104.52
217.158	116.731
220.051	114.216
222.944	100.886
225.836	122.518
228.729	106.879
231.622	111.126
234.514	106.119
237.407	42.751
240.3	37.2911
243.192	10.0335
246.085	1.69238
248.978	3.94495
251.871	1.62573
254.763	8.77899
257.656	29.7997
260.549	46.7811
263.441	63.0584
266.334	90.1585
269.227	96.5929
272.12	123.409
275.012	134.29
277.905	112.667
280.798	110.388
283.69	65.4352
286.583	57.0048
289.476	54.9684
292.368	32.2539
295.261	55.212
298.154	63.307
301.046	89.4893
303.939	114.891
306.832	145.528
309.725	173.334
312.617	214.704
315.51	262.846
318.403	268.539
321.295	290.117
324.188	298.304
327.081	261.798
329.974	242.157
332.866	212.589
335.759	126.939
338.652	120.003
341.544	109.234
344.437	97.1656
347.33	61.6913
350.223	79.8833
353.115	62.3895
356.008	40.2253
358.901	41.6206
361.793	15.6853
364.686	11.4758
367.579	6.78284
370.471	8.66773
373.364	19.9666
376.257	1.39478
379.149	19.0004
382.042	9.34058
384.935	0.12146
387.828	1.36475
390.72	2.51416
393.613	8.69519
396.506	21.0373
399.398	28.7551
402.291	36.9606
405.184	50.2927
408.077	53.4312
410.969	71.3286
413.862	53.5947
416.755	69.1456
419.647	100.184
422.54	83.1402
425.433	98.1697
428.325	77.8873
431.218	68.8273
434.111	62.5119
437.003	45.515
439.896	20.3851
442.789	36.0579
445.682	8.06293
448.574	25.101
451.467	20.205
454.36	12.1775
457.252	26.3437
460.145	8.32233
463.038	4.492
465.93	0.225037
468.823	16.1136
471.716	64.5714
474.609	36.4718
477.501	59.792
480.394	64.1242
483.287	99.3948
486.179	123.394
489.072	159.632
491.965	193.597
494.858	214.114
497.75	251.031
500.643	225.237
503.536	235.789
506.428	194.213
509.321	190.617
512.214	151.908
515.106	117.085
517.999	122.929
520.892	155.578
523.784	156.002
526.677	120.682
529.57	127.541
532.463	131.331
535.355	122.811
538.248	126.543
541.141	95.4775
544.033	85.5036
546.926	98.1757
549.819	87.9532
552.712	78.4712
555.604	60.1221
558.497	44.8409
561.39	58.6103
564.282	32.2884
567.175	48.9492
570.068	84.2687
572.96	61.4333
575.853	78.5426
578.746	99.6118
581.639	90.7576
584.531	116.856
587.424	53.3436
590.317	54.8519
593.209	37.2905
596.102	25.9913
598.995	30.2435
601.888	0.19458
604.78	1.578
607.673	13.238
610.566	2.33594
613.458	16.2403
616.351	12.0089
619.244	1.18811
622.136	19.6315
625.029	13.2392
627.922	16.266
630.814	11.869
633.707	10.4741
636.6	4.81686
639.493	3.63449
642.385	10.7102
645.278	20.9663
648.171	17.0103
651.063	21.4894
653.956	11.7763
656.849	17.3422
659.741	37.336
662.634	23.7262
665.527	0.906311
668.42	44.7199
671.312	28.9953
674.205	34.872
677.098	41.2803
679.99	59.3073
682.883	55.505
685.776	85.9301
688.668	102.821
691.561	114.468
694.454	126.664
697.347	137.863
700.239	142.905
703.132	140.093
706.025	94.5735
708.917	64.1048
711.81	48.2342
714.703	35.5677
717.596	42.6321
720.488	31.1999
723.381	27.56
726.274	31.806
729.166	5.90888
732.059	1.55926
734.952	19.7342
737.844	18.6904
740.737	7.17343
743.63	9.48404
746.523	32.5743
749.415	11.2656
752.308	21.7992
755.201	8.51904
758.093	20.2768
760.986	8.24301
763.879	14.7203
766.771	5.74945
769.664	4.04666
772.557	3.78256
775.45	17.1586
778.342	0.719818
781.235	34.9835
784.128	5.20639
787.02	11.2571
789.913	40.0092
792.806	51.5254
795.698	52.8853
798.591	35.926
801.484	59.5196
804.377	76.1674
807.269	81.6357
810.162	127.195
813.055	128.87
815.947	123.729
818.84	148.561
821.733	130.554
824.625	78.3253
827.518	46.7356
830.411	37.1789
833.304	9.50348
836.196	6.06778
839.089	15.9957
841.982	9.91705
844.874	35.9765
847.767	34.3771
850.66	30.3644
853.553	41.6938
856.445	28.6958
859.338	45.8086
862.231	22.3299
865.123	36.382
868.016	46.6523
870.909	41.1224
873.801	48.7906
876.694	42.1087
879.587	51.6901
882.48	33.8006
885.372	52.0213
888.265	18.6505
891.158	31.8095
894.05	21.3543
896.943	33.3223
899.836	9.99457
902.729	4.17548
905.621	12.8364
908.514	20.3722
911.407	0.934662
914.299	11.9321
917.192	12.3497
920.085	17.1055
922.977	5.9054
925.87	6.52301
928.763	15.2347
931.655	3.07999
934.548	12.1627
937.441	13.2687
940.334	12.9662
943.226	17.9004
946.119	23.2726
949.012	28.7111
951.904	34.7837
954.797	37.4667
957.69	23.1794
960.582	12.5367
963.475	28.6172
966.368	31.0967
969.261	42.059
972.153	38.3529
975.046	30.12
977.939	72.8837
980.831	73.7122
983.724	44.9258
986.617	66.738
989.51	68.9765
992.402	70.1678
995.295	81.7606
998.188	87.382
1001.08	41.7106
1003.97	69.1032
1006.87	37.1397
1009.76	61.6911
1012.65	35.1679
1015.54	29.0175
1018.44	24.856
1021.33	14.7779
1024.22	5.85751
1027.12	42.4247
1030.01	34.2148
1032.9	30.6122
1035.79	12.0838
1038.68	24.1959
1041.58	7.0618
1044.47	31.9852
1047.36	17.5483
1050.26	3.69736
1053.15	19.1086
1056.04	8.52774
1058.93	5.42642
1061.83	17.4301
1064.72	9.84918
1067.61	5.92523
1070.51	2.99219
1073.4	4.85446
1076.29	5.14609
1079.18	8.5741
1082.08	22.9154
1084.97	23.6235
1087.86	14.5595
1090.75	19.3283
1093.65	9.37677
1096.54	7.23279
1099.43	17.2246
1102.33	13.4322
1105.22	29.3139
1108.11	12.7206
1111	14.7289
1113.9	36.6008
1116.79	29.9036
1119.68	26.8253
1122.57	4.19635
1125.47	23.9099
1128.36	15.5232
1131.25	8.73236
1134.14	6.09375
1137.04	5.69778
1139.93	11.2829
1142.82	6.92337
1145.71	28.9643
1148.61	15.1402
1151.5	24.3939
1154.39	31.0324
1157.29	30.1537
1160.18	5.76486
1163.07	8.09485
1165.96	33.6981
1168.86	22.0619
1171.75	30.5157
1174.64	0.31842
1177.54	30.568
1180.43	30.4554
1183.32	16.0413
1186.21	23.3239
1189.11	12.9641
1192	21.14
1194.89	35.9299
1197.78	33.7049
1200.68	17.2971
1203.57	19.8628
1206.46	8.94058
1209.36	14.5144
1212.25	33.8266
1215.14	27.5776
1218.03	13.0688
1220.93	24.0877
1223.82	28.1666
1226.71	12.5971
1229.6	25.9994
1232.5	32.2086
1235.39	26.259
1238.28	17.0873
1241.17	39.5388
1244.07	42.5635
1246.96	22.3511
1249.85	14.6961
1252.74	18.9624
1255.64	35.6103
1258.53	16.8703
1261.42	19.4198
1264.32	23.9029
1267.21	21.1316
1270.1	15.1974
1272.99	16.6612
1275.89	14.3396
1278.78	16.4498
1281.67	0.026367
1284.57	1.79068
1287.46	27.9149
1290.35	17.9117
1293.24	1.7926
1296.14	9.53107
