Measurement: Raman, 780 nm, unoriented, Raman Data Processed
Mineral: Mannardite
Rruff sample: R080136
Ideal chemistry: Ba(Ti^4+^_6_V^3+^_2_)O_16_
Locality: Corinto area, Minas Gerais, Brazil
Source: Luiz Menezes
Description: Black prismatic inclusion in quartz
Measured chemistry: Ba_1.02_(Ti^4+^_5.97_V^3+^_1.82_Cr^3+^_0.20_)O_16_
Raman shift (cm-1)	intensity
189.725	0
192.617	0.391541
195.51	1.44264
198.403	2.13049
201.295	0.139801
204.188	2.89304
207.081	4.09999
209.973	3.0105
212.866	1.539
215.759	1.09158
218.651	2.99576
221.544	1.88847
224.437	2.84401
227.33	3.31914
230.222	2.94052
233.115	2.06805
236.008	3.97116
238.9	4.12288
241.793	4.37115
244.686	5.02502
247.578	3.72937
250.471	5.25548
253.364	1.94629
256.257	3.55679
259.149	4.42216
262.042	3.15814
264.935	3.14757
267.827	4.79428
270.72	1.46034
273.613	3.74254
276.506	1.76135
279.398	1.18103
282.291	5.01831
285.184	2.1438
288.076	0.601639
290.969	0.997116
293.862	1.01552
296.755	0.889389
299.647	0.251724
302.54	2.89107
305.433	0.498199
308.325	1.03989
311.218	1.40207
314.111	3.22671
317.003	0.87468
319.896	3.3266
322.789	0.701187
325.682	0.670441
328.574	4.69936
331.467	4.19452
334.36	2.03624
337.252	3.39946
340.145	2.47264
343.038	7.07571
345.93	5.23694
348.823	5.40012
351.716	5.13
354.608	7.09434
357.501	8.22819
360.394	8.16063
363.287	12.6889
366.179	10.4907
369.072	11.7355
371.965	12.7438
374.857	13.6599
377.75	12.3645
380.643	16.7975
383.536	14.9777
386.428	17.6143
389.321	17.6274
392.214	19.1559
395.106	18.0683
397.999	20.9937
400.892	17.8723
403.784	17.8215
406.677	17.6838
409.57	18.6923
412.462	17.3232
415.355	16.6638
418.248	16.3708
421.141	15.9619
424.033	16.8922
426.926	15.6385
429.819	12.9009
432.712	11.6138
435.604	9.90312
438.497	8.76997
441.39	6.90196
444.282	7.32835
447.175	5.13992
450.068	4.07863
452.96	4.26994
455.853	2.48271
458.746	1.85506
461.639	1.2792
464.531	0.258118
467.424	0.70549
470.317	1.11856
473.209	1.26669
476.102	1.64255
478.995	0.990921
481.887	1.73276
484.78	0.00943
487.673	2.43733
490.565	0.641891
493.458	0.719269
496.351	1.76366
499.244	1.78406
502.136	0.767319
505.029	3.17073
507.922	0.878616
510.814	1.01607
513.707	2.65027
516.6	2.92493
519.492	2.73918
522.385	2.18881
525.278	0.318616
528.171	1.81509
531.063	1.81027
533.956	0.290573
536.849	1.17114
539.741	0.084717
542.634	1.95612
545.527	1.76364
548.42	1.0882
551.312	0.444565
554.205	0.920975
557.098	2.58481
559.99	3.79755
562.883	2.96951
565.776	2.23744
568.668	2.93776
571.561	4.55936
574.454	2.98181
577.347	1.68603
580.239	4.68216
583.132	4.25089
586.025	4.40529
588.917	4.96266
591.81	5.24724
594.703	7.48262
597.596	4.49814
600.488	5.95242
603.381	4.84551
606.274	6.40144
609.166	7.44031
612.059	6.00885
614.952	2.41689
617.844	4.60844
620.737	4.19531
623.63	3.7878
626.523	4.29916
629.415	4.16155
632.308	3.86586
635.201	3.66539
638.093	2.9519
640.986	2.58424
643.879	2.37244
646.771	2.94548
649.664	2.34474
652.557	0.838486
655.449	0.995529
658.342	0.659348
661.235	2.86554
664.128	1.35152
667.02	1.03056
669.913	0.295731
672.806	0.713455
675.698	3.06451
678.591	-0.130575
681.484	0.961807
684.376	2.20827
687.269	0.08699
690.162	0.454178
693.055	1.92619
695.947	3.12573
698.84	0.356155
701.733	1.48796
704.625	2.22458
707.518	2.37244
710.411	2.44182
713.303	1.39276
716.196	1.57077
719.089	1.78645
721.982	1.23792
724.874	1.73321
727.767	2.53732
730.66	1.68028
733.552	0.792725
736.445	0.3517
739.338	2.0377
742.231	1.67691
745.123	0.718643
748.016	0.666092
750.909	0.740005
753.801	0.248489
756.694	2.52768
759.587	1.52406
762.48	1.01781
765.372	3.1862
768.265	2.49387
771.158	2.28641
774.05	1.61452
776.943	1.64925
779.836	2.51427
782.728	0.677063
785.621	2.87309
788.514	2.8551
791.407	3.12338
794.299	2.95259
797.192	2.22298
800.085	3.64354
802.977	2.38869
805.87	0.569931
808.763	1.15805
811.655	2.89145
814.548	0.834274
817.441	1.79092
820.333	2.04411
823.226	0.691864
826.119	1.60715
829.012	0.250229
831.904	0.124115
834.797	0.866257
837.69	0.174179
840.582	3.29213
843.475	2.24402
846.368	0.829849
849.261	1.78876
852.153	1.45537
855.046	2.57788
857.939	1.78127
860.831	2.64445
863.724	2.15674
866.617	2.67033
869.51	1.75006
872.402	5.0164
875.295	4.72183
878.188	5.47261
881.08	8.17935
883.973	6.2496
886.866	7.73956
889.758	8.45238
892.651	7.48592
895.544	5.98292
898.437	6.23718
901.329	1.65356
904.222	5.87334
907.115	3.19136
910.007	0.553391
912.9	1.71292
915.793	0.323349
918.685	0.222855
921.578	0.06076
924.471	0.473083
927.364	0.952682
930.256	0.662125
933.149	1.78561
936.042	1.76221
938.934	2.36194
941.827	1.99045
944.72	2.2023
947.612	2.19231
950.505	0.11792
953.398	1.66646
956.29	1.74522
959.183	0.411209
962.076	2.51071
964.969	1.3772
967.861	4.17976
970.754	1.26196
973.647	2.26576
976.539	2.38039
979.432	0.710114
982.325	0.009476
985.217	0.867142
988.11	1.14632
991.003	1.21761
993.896	1.0862
996.788	1.26045
999.681	1.01866
1002.57	2.45953
1005.47	2.26242
1008.36	2.08281
1011.25	0.395844
1014.14	2.02014
1017.04	1.25896
1019.93	1.95485
1022.82	3.74309
1025.71	2.47276
1028.61	3.60083
1031.5	1.93881
1034.39	3.00061
1037.29	1.22136
1040.18	3.66182
1043.07	2.79552
1045.96	2.3644
1048.86	0.319305
1051.75	2.56842
1054.64	3.00505
1057.54	1.66979
1060.43	1.61337
1063.32	2.1191
1066.21	2.57913
1069.11	1.33652
1072	2.75668
1074.89	1.57182
1077.78	2.88536
1080.68	1.54533
1083.57	4.29733
1086.46	2.28247
1089.36	1.84509
1092.25	1.21675
1095.14	0.062347
1098.03	2.71054
1100.93	0.143463
1103.82	2.49457
1106.71	1.27029
1109.6	1.82333
1112.5	0.1129
1115.39	0.185104
1118.28	0.733917
1121.17	2.10049
1124.07	1.59399
1126.96	1.13373
1129.85	2.18042
1132.74	2.66707
1135.64	1.35826
1138.53	1.6973
1141.42	1.81085
1144.32	1.71976
1147.21	1.77277
1150.1	0.01796
1152.99	1.20108
1155.89	1.95517
1158.78	1.89896
1161.67	2.46518
1164.57	2.7674
1167.46	1.8885
1170.35	2.82576
1173.24	1.66724
1176.14	1.35422
1179.03	4.01074
1181.92	4.82433
1184.81	3.40999
1187.71	3.83636
1190.6	1.39543
1193.49	1.14963
1196.38	1.37885
1199.28	2.92427
1202.17	3.63991
1205.06	2.74056
1207.96	2.35814
1210.85	1.6738
1213.74	2.07559
1216.63	0.242355
1219.53	1.439
1222.42	0.751205
1225.31	0.36293
1228.2	0.304916
1231.1	0.534485
1233.99	2.11836
1236.88	0.307632
1239.78	1.36104
1242.67	0.647842
1245.56	0.538498
1248.45	2.4659
1251.35	3.30368
1254.24	3.42833
1257.13	2.33676
1260.02	4.40308
1262.92	4.12856
1265.81	5.66016
1268.7	0.999222
1271.6	1.06335
1274.49	0.032516
1277.38	0.610428
1280.27	0.034882
1283.17	3.13651
1286.06	0.998489
