Measurement: Raman, 532 nm, unoriented, Raman Data Processed
Mineral: Mannardite
Rruff sample: R060966
Ideal chemistry: Ba(Ti^4+^_6_V^3+^_2_)O_16_
Locality: Rough Claims, Laird Mining Division, British Columbia, Canada
Source: Mark Mauthner
Description: Black submetallic elongated prismatic crystals on quartz
Raman shift (cm-1)	intensity
146.38	0
149.273	43.5987
152.166	49.2722
155.058	58.0508
157.951	24.1811
160.844	33.562
163.736	73.5881
166.629	101.78
169.522	119.255
172.414	105.554
175.307	105.616
178.2	129.012
181.093	114.03
183.985	121.418
186.878	127.401
189.771	103.746
192.663	71.1478
195.556	74.8743
198.449	69.2828
201.341	43.6435
204.234	32.7723
207.127	15.3619
210.019	21.159
212.912	3.23932
215.805	1.3075
218.698	15.6105
221.59	11.0809
224.483	2.13153
227.376	3.62231
230.268	9.33606
233.161	12.8185
236.054	35.289
238.946	42.4359
241.839	91.4388
244.732	99.159
247.625	112.341
250.517	164.256
253.41	186.585
256.303	186.841
259.195	190.11
262.088	208.807
264.981	186.767
267.873	158.952
270.766	161.321
273.659	114.542
276.552	87.6333
279.444	74.5709
282.337	77.13
285.23	35.2466
288.122	9.64917
291.015	30.3182
293.908	11.1228
296.8	3.03644
299.693	7.96643
302.586	20.3218
305.478	13.6361
308.371	7.84003
311.264	2.07288
314.157	30.1612
317.049	9.96545
319.942	58.487
322.835	84.7687
325.727	99.5347
328.62	128.274
331.513	150.865
334.406	166.147
337.298	159.127
340.191	200.677
343.084	181.406
345.976	165.521
348.869	171.628
351.762	204.052
354.654	171.817
357.547	149.24
360.44	142.649
363.333	118.684
366.225	140.657
369.118	135.251
372.011	108.46
374.903	121.344
377.796	97.9221
380.689	81.8256
383.582	80.8837
386.474	99.1396
389.367	74.2394
392.26	71.2803
395.152	62.118
398.045	48.1616
400.938	84.4858
403.83	54.529
406.723	67.2367
409.616	61.8391
412.508	57.5324
415.401	66.4857
418.294	69.5503
421.187	57.1077
424.079	66.4028
426.972	46.9329
429.865	37.6813
432.757	37.8426
435.65	17.3104
438.543	31.368
441.435	45.8359
444.328	30.9199
447.221	4.84424
450.113	11.6528
453.006	11.4706
455.899	17.5649
458.792	19.6586
461.684	12.0655
464.577	12.1138
467.47	6.30078
470.362	5.73035
473.255	6.80725
476.148	24.5669
479.041	9.86816
481.933	25.8612
484.826	9.55432
487.719	9.53015
490.611	9.77747
493.504	15.281
496.397	20.8739
499.289	21.3505
502.182	21.6495
505.075	43.1415
507.967	49.6301
510.86	66.2671
513.753	99.2107
516.646	91.0892
519.538	115.509
522.431	125.83
525.324	150.848
528.216	147.063
531.109	136.81
534.002	145.227
536.894	151.595
539.787	149.608
542.68	151.063
545.573	144.845
548.465	163.929
551.358	132.688
554.251	129.513
557.143	112.329
560.036	96.9015
562.929	80.7301
565.822	79.2329
568.714	78.1879
571.607	63.7647
574.5	65.5658
577.392	71.8219
580.285	54.7524
583.178	44.5848
586.07	58.7458
588.963	36.8527
591.856	10.856
594.749	8.86304
597.641	19.3995
600.534	8.66846
603.427	36.7513
606.319	44.2836
609.212	3.31921
612.105	35.4569
614.997	43.1367
617.89	125.434
620.783	180.692
623.676	251.838
626.568	353.923
629.461	479.937
632.354	639.46
635.246	791.597
638.139	950.066
641.032	1089.91
643.924	1204.8
646.817	1404.75
649.71	1493.76
652.602	1574.61
655.495	1596.82
658.388	1651.29
661.281	1655.35
664.173	1564.9
667.066	1562.44
669.959	1481.11
672.851	1435.33
675.744	1337.28
678.637	1240.24
681.529	1216.04
684.422	1114.69
687.315	1013.51
690.208	910.737
693.1	829.179
695.993	747.287
698.886	693.572
701.778	614.761
704.671	540.698
707.564	488.288
710.457	470.739
713.349	406.199
716.242	387.6
719.135	323.466
722.027	249.147
724.92	259.397
727.813	199.24
730.705	178.844
733.598	120.566
736.491	92.7561
739.384	86.5299
742.276	85.2839
745.169	65.6404
748.062	41.8413
750.954	33.1722
753.847	8.69885
756.74	9.23303
759.632	10.4381
762.525	4.39734
765.418	11.0679
768.31	10.3567
771.203	6.76147
774.096	13.7323
776.989	18.0222
779.881	1.61926
782.774	0.19397
785.667	9.16382
788.559	1.46997
791.452	18.4437
794.345	0.956543
797.237	21.4762
800.13	16.0223
803.023	5.35431
805.915	0.227661
808.808	7.26648
811.701	2.15961
814.594	1.70764
817.486	12.0557
820.379	11.577
823.272	3.90039
826.164	5.94574
829.057	18.0128
831.95	10.3824
834.842	13.0596
837.735	38.7469
840.628	28.5155
843.521	53.6478
846.413	38.6454
849.306	26.3482
852.199	47.5984
855.091	42.6107
857.984	55.2291
860.877	52.121
863.769	65.8031
866.662	62.7412
869.555	67.6743
872.448	75.2926
875.34	66.3843
878.233	67.8817
881.126	54.7731
884.018	57.6541
886.911	50.241
889.804	69.9655
892.697	30.7389
895.589	58.0638
898.482	51.9933
901.375	53.5941
904.267	49.3024
907.16	57.6265
910.053	53.0876
912.945	34.2009
915.838	24.5011
918.731	16.6982
921.624	19.3142
924.516	43.9958
927.409	28.3944
930.302	43.4894
933.194	34.0728
936.087	34.6484
938.98	38.361
941.872	17.3777
944.765	23.3237
947.658	25.9522
950.551	17.1356
953.443	13.872
956.336	0.593445
959.229	8.49048
962.121	17.4578
965.014	15.6384
967.907	1.62036
970.799	19.0367
973.692	6.18097
976.585	23.938
979.477	5.79993
982.37	24.4786
985.263	24.4126
988.156	16.1226
991.048	19.172
993.941	8.34802
996.834	0.912109
999.726	5.41956
1002.62	7.64423
1005.51	19.056
1008.4	42.4607
1011.3	24.1131
1014.19	12.0539
1017.08	19.709
1019.98	10.3301
1022.87	12.7923
1025.76	18.3576
1028.65	14.0928
1031.55	21.2993
1034.44	14.1384
1037.33	31.8174
1040.22	17.859
1043.12	31.833
1046.01	24.5341
1048.9	18.9479
1051.8	16.2027
1054.69	20.5361
1057.58	8.02747
1060.47	2.93774
1063.37	27.1315
1066.26	19.0383
1069.15	18.5811
1072.04	13.0109
1074.94	45.1247
1077.83	2.21094
1080.72	17.9109
1083.62	14.7376
1086.51	20.9828
1089.4	7.49359
1092.29	12.4573
1095.18	18.4064
1098.08	8.31128
1100.97	28.5742
1103.86	0.631897
1106.76	6.04401
1109.65	15.6078
1112.54	36.5997
1115.43	4.22723
1118.33	23.4153
1121.22	8.8537
1124.11	21.6956
1127.01	9.5647
1129.9	21.9694
1132.79	32.981
1135.68	15.5872
1138.58	12.97
1141.47	30.5588
1144.36	23.5469
1147.25	25.7147
1150.15	25.5859
1153.04	16.2834
1155.93	23.9132
1158.83	23.3756
1161.72	35.0674
1164.61	21.0841
1167.5	19.7596
1170.4	13.4503
1173.29	32.6489
1176.18	14.35
1179.07	21.109
1181.97	29.0474
1184.86	20.161
1187.75	9.30829
1190.64	28.7259
1193.54	26.7742
1196.43	7.70398
1199.32	6.62927
1202.21	24.6333
1205.11	13.1464
1208	20.897
1210.89	25.6974
1213.79	20.9629
1216.68	2.35797
1219.57	18.801
1222.46	5.58209
1225.36	11.4197
1228.25	0
