Measurement: Raman, 532 nm, unoriented, Raman Data Processed
Mineral: Mannardite
Rruff sample: R080136
Ideal chemistry: Ba(Ti^4+^_6_V^3+^_2_)O_16_
Locality: Corinto area, Minas Gerais, Brazil
Source: Luiz Menezes
Description: Black prismatic inclusion in quartz
Measured chemistry: Ba_1.02_(Ti^4+^_5.97_V^3+^_1.82_Cr^3+^_0.20_)O_16_
Raman shift (cm-1)	intensity
205.752	0
208.644	4.75023
211.537	3.49527
214.43	1.43706
217.322	2.40067
220.215	3.97769
223.108	2.16899
226	2.089
228.893	0.70311
231.786	1.08147
234.679	4.5726
237.571	1.94131
240.464	4.61075
243.357	3.27647
246.249	4.30182
249.142	6.56191
252.035	5.30508
254.928	6.33429
257.82	6.12883
260.713	6.02757
263.606	5.79718
266.498	5.23831
269.391	7.15855
272.284	3.38377
275.176	1.71484
278.069	1.70392
280.962	2.48903
283.854	0.098083
286.747	0.051788
289.64	0.327225
292.533	1.60713
295.425	2.03604
298.318	1.11182
301.211	0.186523
304.103	0.393784
306.996	1.76965
309.889	3.52945
312.781	5.63409
315.674	6.65659
318.567	11.1377
321.46	8.01128
324.352	11.4073
327.245	14.3301
330.138	13.9426
333.03	15.9404
335.923	16.7964
338.816	15.581
341.709	18.8662
344.601	19.4694
347.494	17.407
350.387	20.0156
353.279	18.145
356.172	17.2812
359.065	16.7227
361.957	14.2763
364.85	14.8973
367.743	13.799
370.635	12.8007
373.528	16.5579
376.421	13.4506
379.314	15.7994
382.206	11.7483
385.099	12.1638
387.992	10.2853
390.884	13.8866
393.777	11.0157
396.67	7.7574
399.562	8.07445
402.455	5.24335
405.348	7.32576
408.241	5.6187
411.133	5.47011
414.026	5.51141
416.919	7.56717
419.811	6.50301
422.704	3.79411
425.597	3.18044
428.49	4.19463
431.382	4.48392
434.275	2.57988
437.168	0.531693
440.06	1.19028
442.953	3.73187
445.846	2.65294
448.738	1.88519
451.631	6.1667
454.524	1.48091
457.416	1.84042
460.309	0.645828
463.202	1.22333
466.095	0.906708
468.987	2.82404
471.88	0.7211
474.773	4.1165
477.665	1.22519
480.558	3.21768
483.451	0.889633
486.344	0.753204
489.236	0.177368
492.129	0.602203
495.022	1.96066
497.914	0.063492
500.807	1.52783
503.7	2.3529
506.592	2.15077
509.485	1.80086
512.378	1.42384
515.27	1.2518
518.163	1.602
521.056	2.89517
523.949	0.148239
526.841	2.19333
529.734	4.17418
532.627	3.16167
535.519	5.2954
538.412	3.21629
541.305	5.99149
544.197	4.4238
547.09	5.06
549.983	5.50702
552.876	6.55893
555.768	6.7645
558.661	7.5788
561.554	6.89749
564.446	8.23137
567.339	8.70094
570.232	9.8045
573.125	11.8243
576.017	13.8538
578.91	12.8834
581.803	14.2532
584.695	12.3515
587.588	14.8265
590.481	13.1602
593.373	13.7629
596.266	11.1003
599.159	10.2172
602.052	5.31278
604.944	9.42636
607.837	8.82433
610.73	3.26048
613.622	5.87585
616.515	4.70113
619.408	3.28978
622.3	2.68365
625.193	2.92416
628.086	5.30786
630.979	4.00265
633.871	5.78625
636.764	5.34302
639.657	7.9967
642.549	5.61888
645.442	7.83229
648.335	7.64465
651.227	6.73984
654.12	8.60777
657.013	8.56635
659.905	8.28786
662.798	9.72664
665.691	7.0975
668.584	5.59415
671.476	6.88217
674.369	4.80246
677.262	5.40575
680.154	6.39886
683.047	6.05513
685.94	4.85307
688.832	2.69469
691.725	1.39648
694.618	2.50534
697.511	2.545
700.403	2.62672
703.296	1.38811
706.189	3.1752
709.081	3.17798
711.974	3.45354
714.867	1.12401
717.76	1.41075
720.652	2.07922
723.545	0.655106
726.438	1.81587
729.33	4.87964
732.223	0.767975
735.116	1.21286
738.008	0.763382
740.901	2.21933
743.794	0.330429
746.687	0.825989
749.579	0.953293
752.472	0.301208
755.365	0.686432
758.257	0.54306
761.15	3.2214
764.043	3.15701
766.935	1.24619
769.828	3.41071
772.721	2.62239
775.614	0.784561
778.506	3.22714
781.399	3.9034
784.292	3.56142
787.184	4.75827
790.077	6.58095
792.97	3.00233
795.862	4.52765
798.755	4.76193
801.648	5.20062
804.54	2.53278
807.433	3.85042
810.326	3.79489
813.219	1.65025
816.111	2.80333
819.004	2.19368
821.897	0.580063
824.789	2.32419
827.682	0.465012
830.575	1.06413
833.467	0.787033
836.36	2.08053
839.253	0.964058
842.146	1.37185
845.038	2.64941
847.931	0.810837
850.824	2.45045
853.716	0.118813
856.609	2.57197
859.502	4.87807
862.394	2.56128
865.287	1.51422
868.18	1.60699
871.073	1.23753
873.965	2.51246
876.858	3.60178
879.751	1.47631
882.643	2.46749
885.536	2.72952
888.429	0.702873
891.322	4.39549
894.214	1.68682
897.107	1.26141
900	0.606285
902.892	2.91134
905.785	0.205956
908.678	0.086937
911.57	1.03979
914.463	0.883163
917.356	0.650826
920.249	1.50777
923.141	2.63673
926.034	1.73797
928.927	1.38564
931.819	3.48685
934.712	5.10219
937.605	4.74376
940.497	7.71593
943.39	8.31992
946.283	12.7269
949.176	10.8342
952.068	10.6912
954.961	9.82153
957.854	8.55335
960.746	7.77216
963.639	8.15596
966.532	5.48025
969.424	4.01407
972.317	2.45012
975.21	3.62961
978.102	2.83954
980.995	2.39185
983.888	3.26723
986.781	0.606689
989.673	2.68655
992.566	1.61375
995.459	0.470642
998.351	0.496887
1001.24	0.015274
1004.14	0.011604
1007.03	0.776314
1009.92	1.13079
1012.82	0.174698
1015.71	1.43971
1018.6	1.39737
1021.49	1.35123
1024.39	1.73627
1027.28	1.17726
1030.17	1.68437
1033.06	2.88293
1035.96	2.74986
1038.85	1.46053
1041.74	1.78261
1044.63	1.1919
1047.53	2.67625
1050.42	0.840115
1053.31	0.930149
1056.2	1.54302
1059.1	1.58679
1061.99	2.30038
1064.88	2.20177
1067.78	2.18439
1070.67	1.17732
1073.56	1.80518
1076.45	3.1936
1079.35	0.713787
1082.24	2.58221
1085.13	0.736626
1088.03	0.954037
1090.92	1.19512
1093.81	1.38815
1096.7	1.78348
1099.6	1.65757
1102.49	2.27222
1105.38	0.824688
1108.27	1.72403
1111.17	0.110252
1114.06	1.7748
1116.95	0.735748
1119.85	0.852001
1122.74	2.06069
1125.63	0.042686
1128.52	1.51208
1131.42	1.42246
1134.31	1.26645
1137.2	0.6049
1140.09	1.30378
1142.99	1.48251
1145.88	1.24615
1148.77	0.196259
1151.66	0.605614
1154.56	1.2912
1157.45	0.666473
1160.34	1.10474
1163.23	4.31122
1166.13	0.974129
1169.02	1.33398
1171.91	1.55102
1174.81	1.43576
1177.7	2.47364
1180.59	0.546562
1183.48	1.70049
1186.38	1.32217
1189.27	1.62199
1192.16	2.70166
1195.06	2.78911
1197.95	1.75502
1200.84	2.63274
1203.73	1.67774
1206.63	2.59019
1209.52	2.80861
1212.41	1.27036
1215.3	2.52849
1218.2	2.08109
1221.09	1.94549
1223.98	1.84865
1226.88	0.083706
1229.77	0.222977
1232.66	1.55869
1235.55	3.27723
1238.44	1.68078
1241.34	2.34028
1244.23	0.906994
1247.12	1.66167
1250.02	0.264439
1252.91	1.90339
1255.8	1.62453
1258.69	0.063923
1261.59	2.5305
1264.48	1.74255
1267.37	3.40502
1270.27	2.02719
1273.16	1.70614
1276.05	2.64581
1278.94	0.820778
1281.84	1.72337
1284.73	0.062431
1287.62	0.502972
1290.51	0.995319
1293.41	1.27934
1296.3	0.658047
1299.19	0.823284
1302.09	2.59248
