Measurement: Raman, 785 nm, unoriented, Raman Data Processed
Mineral: Mannardite
Rruff sample: R060966
Ideal chemistry: Ba(Ti^4+^_6_V^3+^_2_)O_16_
Locality: Rough Claims, Laird Mining Division, British Columbia, Canada
Source: Mark Mauthner
Description: Black submetallic elongated prismatic crystals on quartz
Raman shift (cm-1)	intensity
147.562	0
150.455	71.9281
153.348	54.2487
156.24	31.3713
159.133	4.55762
162.026	32.4138
164.918	56.4982
167.811	68.964
170.704	89.0854
173.597	86.5598
176.489	60.8698
179.382	102.49
182.275	100.45
185.167	92.618
188.06	82.6506
190.953	55.2734
193.845	48.1571
196.738	36.1411
199.631	54.5942
202.524	47.4581
205.416	18.8566
208.309	1.98126
211.202	0.251892
214.094	9.62738
216.987	9.2279
219.88	2.7691
222.773	12.6248
225.665	26.6787
228.558	33.0308
231.451	50.1857
234.343	29.0602
237.236	67.3359
240.129	64.057
243.021	108.342
245.914	110.544
248.807	136.528
251.7	123.398
254.592	154.914
257.485	180.611
260.378	149.628
263.27	162.515
266.163	166.978
269.056	125.606
271.948	131.177
274.841	105.306
277.734	85.9791
280.627	92.0299
283.519	57.166
286.412	55.506
289.305	31.7233
292.197	87.0037
295.09	63.374
297.983	67.5266
300.875	36.1146
303.768	18.6557
306.661	7.49274
309.553	2.4057
312.446	6.31061
315.339	2.33673
318.231	2.59112
321.124	2.01825
324.017	45.7048
326.91	64.0621
329.802	139.756
332.695	195.803
335.588	164.011
338.48	162.396
341.373	193.797
344.266	206.28
347.159	218.016
350.051	226.495
352.944	214.895
355.837	213.333
358.729	179.384
361.622	171.939
364.515	120.883
367.407	122.102
370.3	119.983
373.193	108.838
376.086	105.97
378.978	89.7769
381.871	76.6167
384.764	28.7031
387.656	22.7518
390.549	33.7153
393.442	41.0758
396.334	35.2737
399.227	26.9768
402.12	45.3268
405.012	32.811
407.905	34.4338
410.798	31.116
413.691	27.9261
416.583	29.6516
419.476	33.3854
422.369	39.7371
425.261	47.5314
428.154	18.3536
431.047	16.0977
433.94	5.91479
436.832	0.285889
439.725	0.94873
442.618	9.66711
445.51	0.677551
448.403	25.5439
451.296	0.196594
454.188	26.9379
457.081	5.55774
459.974	17.9548
462.866	14.5046
465.759	8.56763
468.652	7.23981
471.545	21.9948
474.437	12.5212
477.33	0.519653
480.223	22.7043
483.115	5.15051
486.008	13.0593
488.901	11.2078
491.793	25.797
494.686	13.6312
497.579	19.4642
500.471	18.4021
503.364	29.6545
506.257	56.4009
509.15	60.3021
512.042	57.4239
514.935	102.976
517.828	115.707
520.72	136.613
523.613	138.779
526.506	145.239
529.399	144.824
532.291	146.625
535.184	148.381
538.077	146.007
540.969	133.756
543.862	126.203
546.755	96.6554
549.647	94.4793
552.54	95.3772
555.433	87.8272
558.326	76.3033
561.218	45.8404
564.111	5.07953
567.004	1.10126
569.896	0.587402
572.789	16.4197
575.682	2.31445
578.574	12.746
581.467	2.72443
584.36	14.0785
587.252	7.81067
590.145	26.8274
593.038	34.4984
595.931	41.2109
598.823	47.9423
601.716	42.8969
604.609	18.6758
607.501	13.0143
610.394	16.3368
613.287	23.9152
616.179	27.5701
619.072	53.0339
621.965	60.6942
624.857	56.7859
627.75	140.486
630.643	193.374
633.536	263.232
636.428	352.925
639.321	460.79
642.214	533.266
645.106	635.157
647.999	719.413
650.892	753.447
653.784	853.298
656.677	887.991
659.57	933.545
662.463	884.782
665.355	878.067
668.248	833.968
671.141	787.234
674.033	753.786
676.926	687.939
679.819	654.065
682.712	613.294
685.604	541.926
688.497	495.848
691.39	469.711
694.282	397.057
697.175	395.88
700.068	361.699
702.96	312.899
705.853	256.934
708.746	245.598
711.639	193.936
714.531	168.176
717.424	144.829
720.317	99.9966
723.209	97.8818
726.102	108.544
728.995	83.176
731.887	24.2063
734.78	67.2117
737.673	55.9635
740.566	29.0548
743.458	26.2272
746.351	9.69873
749.244	33.5349
752.136	3.3313
755.029	12.4517
757.922	14.2186
760.814	17.2338
763.707	20.5973
766.6	23.7053
769.492	39.5145
772.385	19.9842
775.278	30.1593
778.17	37.279
781.063	68.0512
783.956	86.2142
786.849	93.0623
789.741	126.42
792.634	128.653
795.527	133.716
798.419	84.7042
801.312	103.772
804.205	148.399
807.097	164.521
809.99	142.476
812.883	163.825
815.776	119.583
818.668	108.018
821.561	86.9585
824.454	74.7007
827.346	36.61
830.239	27.1902
833.132	21.8253
836.024	3.11334
838.917	19.3734
841.81	8.53131
844.703	0.157654
847.595	11.8975
850.488	11.1174
853.381	26.764
856.273	17.7311
859.166	16.4499
862.059	19.3451
864.952	12.8883
867.844	39.6968
870.737	19.7436
873.63	8.6557
876.522	47.247
879.415	47.1688
882.308	53.654
885.2	45.8491
888.093	58.2789
890.986	52.1703
893.879	45.2949
896.771	48.4611
899.664	50.8298
902.557	52.2964
905.449	51.4575
908.342	41.1171
911.235	36.7225
914.127	25.7724
917.02	40.9308
919.913	34.6517
922.806	49.2468
925.698	37.8422
928.591	31.3143
931.484	34.3745
934.376	37.4768
937.269	43.3215
940.162	50.307
943.054	52.7913
945.947	31.3751
948.84	21.7922
951.732	40.8493
954.625	17.7178
957.518	0.41095
960.41	33.2864
963.303	24.3953
966.196	21.5309
969.089	21.735
971.981	5.57861
974.874	24.5388
977.767	33.7692
980.659	5.41205
983.552	27.0918
986.445	25.7814
989.337	23.9929
992.23	6.76306
995.123	11.3517
998.016	6.54083
1000.91	7.89081
1003.8	3.13654
1006.69	3.74927
1009.59	2.35767
1012.48	26.7966
1015.37	1.41693
1018.26	24.8298
1021.16	25.6605
1024.05	26.1947
1026.94	10.9157
1029.84	17.5686
1032.73	1.99652
1035.62	18.4349
1038.51	27.1436
1041.41	13.646
1044.3	15.1174
1047.19	30.8745
1050.08	35.118
1052.98	15.9387
1055.87	33.4065
1058.76	18.7383
1061.65	14.0583
1064.55	17.8645
1067.44	11.7579
1070.33	1.52859
1073.23	12.3917
1076.12	17.98
1079.01	18.7141
1081.9	28.064
1084.8	12.4444
1087.69	0.68985
1090.58	16.8919
1093.47	42.2974
1096.37	15.2556
1099.26	20.8172
1102.15	29.0498
1105.05	8.63589
1107.94	3.08344
1110.83	18.1547
1113.72	25.5395
1116.62	18.6804
1119.51	13.668
1122.4	26.6827
1125.29	22.8498
1128.19	18.6598
1131.08	20.5211
1133.97	5.83826
1136.87	25.1846
1139.76	33.7657
1142.65	18.3625
1145.54	40.6003
1148.44	15.6917
1151.33	12.926
1154.22	27.9937
1157.11	44.1813
1160.01	16.9525
1162.9	49.106
1165.79	30.9374
1168.68	25.6875
1171.58	28.7563
1174.47	44.6889
1177.36	48.484
1180.26	37.4773
1183.15	34.1932
1186.04	27.9688
1188.93	0.816162
1191.83	14.8326
1194.72	16.181
1197.61	40.9153
1200.51	33.0742
1203.4	40.2259
1206.29	7.10992
1209.18	42.4689
1212.08	51.2517
1214.97	23.7309
1217.86	41.9724
1220.75	54.9506
1223.65	40.8923
1226.54	46.5228
1229.43	62.6772
1232.32	15.3567
1235.22	18.498
1238.11	29.3168
1241	5.52243
1243.89	58.9604
1246.79	23.216
1249.68	31.7024
1252.57	67.7098
1255.47	44.2003
1258.36	29.893
1261.25	15.4954
1264.14	0.606323
