Measurement: Raman, 532 nm, unoriented, Raman Data Processed
Mineral: Mansfieldite
Rruff sample: R060951
Ideal chemistry: AlAs^5+^O_4_2H_2_O
Locality: Pampa Larga Mining District, Chile
Source: Bob Jenkins
Description: Sharp pale rose crystals, fairly transparent.
Measured chemistry: (Al_0.89_Fe^3+^_0.11_)_Σ=1_As_1.00_O_4_·2H_2_O; trace amounts of P, Mn, Ca, Na; H_2_O estimated by difference
Raman shift (cm-1)	intensity
191.912	0
194.805	46.1992
197.697	116.191
200.59	618.816
203.483	699.637
206.375	1059.75
209.268	742.598
212.161	298.137
215.054	160.883
217.946	105.246
220.839	51.5156
223.732	135.934
226.624	97.4453
229.517	77.1797
232.41	74.4453
235.302	9.55859
238.195	57.5508
241.088	128.156
243.981	134.965
246.873	430.356
249.766	432.777
252.659	125.598
255.551	36.1094
258.444	10.582
261.337	171.441
264.229	346.281
267.122	469.078
270.015	278.574
272.908	210.527
275.8	248.617
278.693	270.481
281.586	380.883
284.478	424.84
287.371	296.199
290.264	413.09
293.156	456.656
296.049	300.453
298.942	397.398
301.834	650.508
304.727	1110.34
307.62	1288.32
310.513	1417.46
313.405	1154.21
316.298	727.449
319.191	628.07
322.083	522.461
324.976	634.129
327.869	818.551
330.761	994.703
333.654	837.18
336.547	729.488
339.44	747.102
342.332	646.914
345.225	402.715
348.118	458.43
351.01	378.949
353.903	389.109
356.796	251.184
359.688	27.8906
362.581	51.1406
365.474	194.336
368.366	132.539
371.259	8.17578
374.152	20.3438
377.045	259.031
379.937	431.484
382.83	451.461
385.723	651.012
388.615	1054.84
391.508	1206.95
394.401	1271.9
397.293	1315.82
400.186	1328.24
403.079	1583.27
405.972	1534.33
408.864	1949.03
411.757	1998.31
414.65	2160.91
417.542	2630.55
420.435	2651.98
423.328	2690.64
426.221	2509.56
429.113	2301.91
432.006	2341.6
434.899	1984.58
437.791	1676.65
440.684	1357.56
443.577	1327.83
446.469	988.016
449.362	850.844
452.255	1084.41
455.147	1031.07
458.04	1038.09
460.933	862.57
463.825	1056.53
466.718	930.375
469.611	525.234
472.504	530.219
475.396	285.793
478.289	50.5781
481.182	7.39062
484.074	535.594
486.967	585.656
489.86	668.078
492.752	533.75
495.645	498.969
498.538	760.109
501.431	710.668
504.323	680.668
507.216	876.383
510.109	1008.12
513.001	1004.35
515.894	840.91
518.787	980.352
521.679	959.859
524.572	768.273
527.465	474.629
530.357	331.465
533.25	365.809
536.143	89.0938
539.036	13.75
541.928	76.2148
544.821	13.8672
547.714	4.61328
550.606	86.1992
553.499	72.1367
556.392	104.019
559.284	26.293
562.177	19.3828
565.07	179.457
567.963	205.172
570.855	257.031
573.748	186.934
576.641	103.394
579.533	2.46094
582.426	216.141
585.319	277.219
588.212	198.785
591.104	372.254
593.997	411.477
596.89	295.477
599.782	425.25
602.675	525.305
605.568	907.664
608.46	1049.57
611.353	1138.49
614.246	1218.05
617.139	1240.81
620.031	1385.99
622.924	1547.47
625.817	1528.68
628.709	1488.63
631.602	1239.64
634.495	897.047
637.387	929.5
640.28	877.562
643.173	732.676
646.065	876.184
648.958	756.973
651.851	1007.61
654.744	963.106
657.636	810.144
660.529	740.699
663.422	553.531
666.314	431.66
669.207	599.82
672.1	637.438
674.992	280.019
677.885	171.992
680.778	281.43
683.67	328.684
686.563	325.871
689.456	426.898
692.349	560.031
695.241	317.137
698.134	316.258
701.027	151.961
703.919	99.832
706.812	21.2383
709.705	10.3008
712.597	19.6445
715.49	87.6133
718.383	189.242
721.276	232.016
724.168	159.734
727.061	156.453
729.954	22.2578
732.846	66.9766
735.739	56.2617
738.632	22.6328
741.524	69.2695
744.417	330.004
747.31	484.254
750.202	361.031
753.095	22.2891
755.988	182.613
758.881	71.5859
761.773	119.387
764.666	154.793
767.559	214.898
770.451	366.414
773.344	295.922
776.237	271.207
779.13	388.277
782.022	745.711
784.915	809.238
787.808	1222.95
790.7	1636.66
793.593	2623.39
796.486	3122.72
799.378	3664.39
802.271	4136.92
805.164	4619.4
808.057	4550.75
810.949	4755.99
813.842	4682.4
816.735	4272.19
819.627	3901.5
822.52	3577.94
825.413	3525.53
828.305	3424.63
831.198	3287.95
834.091	2854.97
836.984	2490.7
839.876	2243.76
842.769	1800.73
845.662	1599.86
848.554	1074.46
851.447	520.719
854.34	187.207
857.232	127.207
860.125	253.699
863.018	188.727
865.91	170.172
868.803	14.4023
871.696	157.695
874.588	78.9414
877.481	402.945
880.374	748.551
883.267	1195.36
886.159	1378.55
889.052	1438.7
891.945	1825.18
894.837	2250.51
897.73	2276.01
900.623	1977.7
903.515	2058.8
906.408	2209.25
909.301	2292.42
912.194	2455.95
915.086	2732.02
917.979	2322.8
920.872	2258.25
923.764	2216.65
926.657	2118.18
929.55	1960.75
932.442	1241.88
935.335	1047.42
938.228	955.902
941.12	693.207
944.013	500.328
946.906	310.07
949.799	92.1094
952.691	26.2617
955.584	125.262
958.477	32.2812
961.369	180.203
964.262	256.551
967.155	131.258
970.048	9.91016
972.94	113.793
975.833	228.781
978.726	238.984
981.618	214.074
984.511	303.723
987.404	108.465
990.296	148.062
993.189	188.562
996.082	254.82
998.975	283.289
1001.87	459.391
1004.76	441.379
1007.65	425.629
1010.54	275.586
1013.44	223.894
1016.33	345.684
1019.22	303.246
1022.12	230.934
1025.01	569.269
1027.9	666.34
1030.79	582.965
1033.69	450.332
1036.58	581.125
1039.47	547.941
1042.37	633.707
1045.26	539.617
1048.15	95.6953
1051.04	347.164
1053.94	527.141
1056.83	583.047
1059.72	534.359
1062.61	403.129
1065.51	112.519
1068.4	73.5547
1071.29	116.277
1074.18	330.559
1077.08	7.375
1079.97	19.793
1082.86	15.0547
1085.76	367.891
1088.65	217.668
1091.54	227.746
1094.43	500.891
1097.33	423.156
1100.22	666.707
1103.11	513.254
1106	323.934
1108.9	431.91
1111.79	164.391
1114.68	22.9648
1117.58	152.688
1120.47	6.99219
1123.36	186.871
1126.25	176.438
1129.15	510.598
1132.04	592.973
1134.93	569.172
1137.82	420.211
1140.72	333.344
1143.61	249.188
1146.5	59.4609
1149.39	96.9688
1152.29	349.555
1155.18	567.75
1158.07	446.148
1160.97	369.656
1163.86	183.336
1166.75	47.6328
1169.64	33.1094
1172.54	180.586
1175.43	439.297
1178.32	333.055
1181.21	465.906
1184.11	849.836
1187	447.461
1189.89	285.742
1192.79	53.6641
1195.68	162.859
1198.57	109.266
1201.46	158.32
1204.36	104.281
1207.25	193.148
1210.14	138.133
1213.03	239.844
1215.93	287.883
1218.82	110.547
1221.71	56.4609
1224.61	37.9609
1227.5	51.8984
1230.39	172.555
1233.28	55.4297
1236.18	265.602
1239.07	162.18
1241.96	124.742
1244.85	84.5
1247.75	103.258
1250.64	54.7344
