Measurement: Raman, 785 nm, unoriented, Raman Data Processed
Mineral: Mansfieldite
Rruff sample: R060951
Ideal chemistry: AlAs^5+^O_4_2H_2_O
Locality: Pampa Larga Mining District, Chile
Source: Bob Jenkins
Description: Sharp pale rose crystals, fairly transparent.
Measured chemistry: (Al_0.89_Fe^3+^_0.11_)_Σ=1_As_1.00_O_4_·2H_2_O; trace amounts of P, Mn, Ca, Na; H_2_O estimated by difference
Raman shift (cm-1)	intensity
177.936	0
180.828	55.0181
183.721	309.689
186.614	561.229
189.506	704.341
192.399	877.877
195.292	1000.13
198.185	1326.73
201.077	1515.43
203.97	1663.01
206.863	1477.27
209.755	1049.89
212.648	577.681
215.541	385.526
218.433	277.019
221.326	234.056
224.219	152.303
227.112	123.339
230.004	21.4756
232.897	57.7671
235.79	14.1558
238.682	39.0576
241.575	45.4023
244.468	15.1924
247.36	18.2788
250.253	50.5898
253.146	18.9019
256.038	40.7085
258.931	9.02539
261.824	20.5283
264.717	49.2148
267.609	50.228
270.502	47.6812
273.395	56.1489
276.287	10.1792
279.18	89.6089
282.073	84.5742
284.966	88.4717
287.858	139.925
290.751	223.782
293.644	372.139
296.536	574.684
299.429	772.223
302.322	983.801
305.214	1106.98
308.107	1191.69
311	1188.15
313.892	1063.22
316.785	975.717
319.678	792.406
322.571	678.232
325.463	694.189
328.356	694.739
331.249	818.983
334.141	809.969
337.034	665.247
339.927	541.764
342.82	464.169
345.712	332.218
348.605	225.231
351.498	142.325
354.39	66.4736
357.283	12.2383
360.176	53.4409
363.068	48.9282
365.961	84.2119
368.854	61.5747
371.747	11.3086
374.639	56.8023
377.532	135.037
380.425	273.796
383.317	344.676
386.21	516.478
389.103	702.698
391.995	925.754
394.888	1128.63
397.781	1359.74
400.673	1416.22
403.566	1469.16
406.459	1573.89
409.351	1660.89
412.244	1834.19
415.137	2029.56
418.03	2208.09
420.922	2419.35
423.815	2436.84
426.708	2355.04
429.6	2161.49
432.493	1817.56
435.386	1520.13
438.279	1265.37
441.171	1047.86
444.064	861.521
446.957	845.9
449.849	732.971
452.742	802.725
455.635	998.777
458.527	1295.39
461.42	1472.64
464.313	1381.85
467.205	929.438
470.098	556.007
472.991	326.698
475.884	183.153
478.776	149.207
481.669	120.37
484.562	183.047
487.454	306.116
490.347	454.359
493.24	562.538
496.132	703.844
499.025	799.488
501.918	818.636
504.811	895.761
507.703	857.899
510.596	804.66
513.489	824.179
516.381	713.082
519.274	703.832
522.167	526.335
525.059	472.164
527.952	331.577
530.845	258.521
533.737	173.1
536.63	92.0723
539.523	47.752
542.416	28.9219
545.308	40.5315
548.201	57.05
551.094	77.4404
553.986	15.6702
556.879	25.3184
559.772	8.58521
562.665	37.3477
565.557	24.884
568.45	2.81445
571.343	28.7637
574.235	64.0132
577.128	53.2036
580.021	100.803
582.913	120.2
585.806	113.162
588.699	101.246
591.591	156.143
594.484	150.904
597.377	175.196
600.27	213.144
603.162	224.689
606.055	227.682
608.948	227.66
611.84	164.737
614.733	183.462
617.626	190.088
620.519	196.957
623.411	187.212
626.304	173.531
629.197	185.931
632.089	202.584
634.982	148.231
637.875	140.432
640.767	160.997
643.66	118.981
646.553	112.713
649.446	122.396
652.338	118.787
655.231	116.331
658.124	108.661
661.016	128.045
663.909	87.7561
666.802	109.879
669.694	124.793
672.587	135.665
675.48	112.348
678.372	108.093
681.265	117.41
684.158	111.263
687.051	111.008
689.943	108.288
692.836	106.189
695.729	114.791
698.621	137.742
701.514	186.466
704.407	134.3
707.299	125.508
710.192	145.577
713.085	159.624
715.977	167.8
718.87	196.116
721.763	138.197
724.656	163.225
727.548	149.219
730.441	141.571
733.334	110.842
736.226	100.062
739.119	88.1848
742.012	101.133
744.904	28.5061
747.797	6.70312
750.69	30.3828
753.583	35.478
756.475	33.1516
759.368	17.4487
762.261	61.3506
765.153	45.6289
768.046	48.1301
770.939	38.4841
773.832	45.9741
776.724	46.2786
779.617	7.94946
782.51	23.8191
785.402	120.2
788.295	293.728
791.188	494.867
794.08	684.43
796.973	1042.64
799.866	1433.12
802.759	1772.27
805.651	2006.6
808.544	2095.53
811.437	2035.4
814.329	1956.91
817.222	1815.89
820.115	1620.74
823.007	1412.77
825.9	1254.06
828.793	1124.79
831.686	1059.71
834.578	971.319
837.471	826.716
840.364	736.283
843.256	664.702
846.149	635.022
849.042	684.102
851.934	552.777
854.827	505.084
857.72	439.056
860.612	438.812
863.505	529.764
866.398	542.378
869.29	611.086
872.183	629.627
875.076	704.342
877.969	846.132
880.861	1030.01
883.754	1186.39
886.647	1325.85
889.539	1382.13
892.432	1569.96
895.325	1608.61
898.217	1652.47
901.11	1718.17
904.003	1827.89
906.896	1972.79
909.788	2117.39
912.681	2353.89
915.574	2377.06
918.466	2249.16
921.359	1954.6
924.252	1611.22
927.144	1265.98
930.037	1067.85
932.93	801.755
935.823	729.277
938.715	530.725
941.608	427.639
944.501	301.974
947.393	184.505
950.286	126.996
953.179	39.5134
956.072	2.11816
958.964	8.10571
961.857	30.3306
964.75	40.491
967.642	7.2522
970.535	55.3565
973.428	21.5908
976.32	21.2612
979.213	11.8401
982.106	9.73389
984.999	13.9023
987.891	9.84815
990.784	8.8667
993.677	17.8462
996.569	80.6323
999.462	162.2
1002.36	111.737
1005.25	171.204
1008.14	170.034
1011.03	176.426
1013.92	212.41
1016.82	179.84
1019.71	193.379
1022.6	180.734
1025.5	179.028
1028.39	190.018
1031.28	186.184
1034.17	190.444
1037.07	131.07
1039.96	226.851
1042.85	205.815
1045.74	163.625
1048.64	154.298
1051.53	139.387
1054.42	133.101
1057.32	156.231
1060.21	118.247
1063.1	94.5996
1065.99	91.4294
1068.89	95.9199
1071.78	89.6938
1074.67	83.0068
1077.57	114.957
1080.46	79.7275
1083.35	48.9946
1086.24	57.7637
1089.14	55.8276
1092.03	51.0806
1094.92	55.041
1097.81	56.4414
1100.71	49.4556
1103.6	43.2317
1106.49	49.9834
1109.38	38.581
1112.28	44.4949
1115.17	64.5598
1118.06	15.022
1120.95	23.2773
1123.85	20.7158
1126.74	42.5247
1129.63	25.8955
1132.53	30.5232
1135.42	19.5281
1138.31	14.6792
1141.2	42.3359
1144.1	22.8569
1146.99	12.4326
1149.88	14.6143
1152.78	35.0781
1155.67	10.8723
1158.56	28.5657
1161.45	73.7786
1164.35	40.5642
1167.24	0.414307
1170.13	2.66138
1173.02	33.6426
1175.92	30.0898
1178.81	28.2522
1181.7	1.17358
1184.6	19.4497
1187.49	11.1389
1190.38	18.2107
1193.27	35.7028
1196.16	40.425
1199.06	72.5375
1201.95	38.7096
1204.84	42.6802
1207.74	5.44202
1210.63	29.2567
1213.52	45.3724
1216.41	73.2737
1219.31	60.3771
1222.2	44.1118
1225.09	19.7217
1227.98	45.1746
1230.88	67.2135
1233.77	31.3351
1236.66	29.9597
1239.56	36.8167
1242.45	61.911
1245.34	54.6406
1248.23	48.4774
1251.13	91.3936
1254.02	36.4595
1256.91	40.3074
1259.81	18.3145
1262.7	2.39612
1265.59	56.7738
