Measurement: Raman, 532 nm, unoriented, Raman Data Processed
Mineral: Marcasite
Rruff sample: R060882
Ideal chemistry: FeS_2_
Locality: Ive's Quarry, Racine, Wisconsin, USA
Source: Bob Jenkins
Description: Brassy yellow prismatic crystals
Measured chemistry: Fe_1.00_S_2.00_
Raman shift (cm-1)	intensity
170.699	0
173.592	2.04712
176.484	11.1064
179.377	32.8105
182.27	2.74658
185.162	16.4211
188.055	7.25305
190.948	14.526
193.84	19.426
196.733	36.6019
199.626	30.0872
202.519	22.8786
205.411	53.7596
208.304	31.6442
211.197	62.2529
214.089	62.084
216.982	81.3622
219.875	127.425
222.767	102.511
225.66	101.06
228.553	83.3587
231.446	64.8362
234.338	52.0654
237.231	56.5326
240.124	58.6037
243.016	79.1801
245.909	48.9936
248.802	26.1878
251.694	22.0588
254.587	7.12146
257.48	14.0173
260.373	6.56964
263.265	21.3189
266.158	1.29364
269.051	29.7275
271.943	4.49829
274.836	18.2136
277.729	48.8077
280.621	69.9111
283.514	104.778
286.407	168.821
289.3	191.632
292.192	245.004
295.085	230.618
297.978	218.32
300.87	167.286
303.763	181.803
306.656	100.966
309.548	101.139
312.441	154.597
315.334	351.211
318.226	452.507
321.119	704.915
324.012	1257.59
326.904	419.081
329.797	79.9987
332.69	33.1898
335.583	18.3187
338.475	6.35339
341.368	21.9563
344.261	6.50757
347.153	4.052
350.046	30.1941
352.939	14.8221
355.832	14.7179
358.724	61.8606
361.617	71.7104
364.51	75.478
367.402	124.909
370.295	145.923
373.188	208.785
376.08	255.529
378.973	320.365
381.866	357.798
384.759	449.134
387.651	526.82
390.544	419.458
393.437	417.801
396.329	379.265
399.222	368.282
402.115	347.437
405.007	319.408
407.9	303.954
410.793	249.732
413.685	242.285
416.578	134.805
419.471	99.6205
422.364	80.0193
425.256	58.8024
428.149	25.0129
431.042	53.9823
433.934	27.2227
436.827	21.0981
439.72	20.8599
442.612	6.83606
445.505	15.4315
448.398	5.198
451.291	29.8064
454.183	30.2366
457.076	25.1189
459.969	26.9048
462.861	4.33398
465.754	20.6457
468.647	32.8394
471.539	21.478
474.432	23.5378
477.325	33.9287
480.217	17.1194
483.11	47.0585
486.003	29.6577
488.896	20.158
491.788	33.4337
494.681	36.8695
497.574	16.4
500.466	52.0645
503.359	19.0717
506.252	16.5602
509.144	18.5823
512.037	29.9309
514.93	12.7819
517.823	3.91772
520.715	28.323
523.608	12.1897
526.501	39.7682
529.393	39.1492
532.286	30.1293
535.179	4.27063
538.072	37.0531
540.964	10.1306
543.857	32.3876
546.75	29.989
549.642	39.6853
552.535	29.1897
555.428	35.8042
558.32	36.2259
561.213	14.5088
564.106	25.5389
566.998	24.1722
569.891	36.5612
572.784	31.583
575.677	10.8571
578.569	5.79639
581.462	1.60583
584.355	22.8543
587.247	7.11182
590.14	0.752563
593.033	11.8446
595.925	19.0914
598.818	0.710205
601.711	39.9376
604.604	48.3171
607.496	54.1506
610.389	54.2114
613.282	37.499
616.174	59.9774
619.067	52.8164
621.96	47.8525
624.852	84.0933
627.745	66.3551
630.638	90.7078
633.53	59.3175
636.423	80.7994
639.316	114.542
642.209	103.624
645.101	131.144
647.994	161.568
650.887	158.557
653.779	153.931
656.672	175.527
659.565	153.466
662.457	189.43
665.35	207.304
668.243	204.348
671.135	208.82
674.028	195.948
676.921	174.608
679.814	172.601
682.706	211.15
685.599	207.585
688.492	211.725
691.384	193.347
694.277	179.993
697.17	168.828
700.062	165.927
702.955	156.558
705.848	147.148
708.741	127.255
711.633	129.588
714.526	118.97
717.419	112.554
720.311	85.2978
723.204	82.9327
726.097	34.8446
728.99	36.6805
731.882	29.3805
734.775	29.6659
737.668	27.6334
740.56	7.94885
743.453	3.85437
746.346	11.4154
749.238	5.07422
752.131	1.08337
755.024	13.9935
757.916	12.0687
760.809	14.197
763.702	5.495
766.595	7.22571
769.487	7.76587
772.38	3.47913
775.273	16.7887
778.165	12.9049
781.058	10.747
783.951	18.1409
786.843	14.9395
789.736	23.6411
792.629	12.9147
795.521	38.9187
798.414	38.0724
801.307	33.1005
804.2	53.9886
807.092	46.8075
809.985	48.1909
812.878	23.3492
815.77	19.5091
818.663	38.4781
821.556	55.054
824.448	42.1379
827.341	17.2775
830.234	70.509
833.127	32.0583
836.019	29.343
838.912	27.8053
841.805	37.3684
844.697	6.2666
847.59	59.3164
850.483	9.00275
853.375	12.0408
856.268	30.5949
859.161	6.11804
862.053	21.6177
864.946	7.64478
867.839	40.8782
870.732	19.2938
873.624	12.0485
876.517	24.3624
879.41	11.2205
882.302	24.5558
885.195	24.1874
888.088	41.7876
890.981	17.4141
893.873	16.9051
896.766	34.0637
899.659	1.86255
902.551	19.0045
905.444	4.03503
908.337	17.2955
911.229	25.0104
914.122	16.9237
917.015	26.3068
919.908	27.4517
922.8	20.9183
925.693	3.87402
928.586	6.09509
931.478	16.3919
934.371	3.15723
937.264	0.640869
940.156	39.1943
943.049	8.1062
945.942	29.6625
948.835	26.6399
951.727	2.22095
954.62	19.4994
957.513	20.976
960.405	22.798
963.298	16.2805
966.191	23.0137
969.083	4.55689
971.976	30.1827
974.869	44.0184
977.761	20.7047
980.654	28.2275
983.547	40.8471
986.439	44.4132
989.332	41.1282
992.225	37.5068
995.118	27.5558
998.01	19.2408
1000.9	65.165
1003.8	22.8987
1006.69	40.8334
1009.58	37.0868
1012.47	30.8473
1015.37	18.3691
1018.26	8.8335
1021.15	33.3716
1024.05	7.37805
1026.94	19.2683
1029.83	39.5082
1032.72	44.7644
1035.62	18.5479
1038.51	68.5594
1041.4	54.8673
1044.29	55.5017
1047.19	45.8081
1050.08	32.3693
1052.97	56.3364
1055.86	25.5074
1058.76	14.2534
1061.65	25.145
1064.54	51.4445
1067.43	13.4009
1070.33	29.7138
1073.22	16.1571
1076.11	38.7086
1079.01	50.6162
1081.9	4.21167
1084.79	42.9941
1087.68	32.3404
1090.58	28.3254
1093.47	37.2722
1096.36	34.7867
1099.26	47.0669
1102.15	43.3129
1105.04	60.0717
1107.93	43.2386
1110.83	19.13
1113.72	32.0127
1116.61	24.4979
1119.5	40.6245
1122.4	25.8758
1125.29	29.469
1128.18	29.2535
1131.07	47.1312
1133.97	13.6536
1136.86	38.9547
1139.75	39.0077
1142.64	4.15808
1145.54	3.06091
1148.43	21.9242
1151.32	32.3894
1154.22	0.214966
1157.11	21.4099
1160	14.6912
1162.89	22.5493
1165.79	10.6958
1168.68	25.45
1171.57	25.8852
1174.46	6.22144
1177.36	12.2634
1180.25	55.3235
1183.14	14.1834
1186.04	9.04395
1188.93	42.0941
1191.82	41.4695
1194.71	12.4683
1197.61	28.7692
1200.5	36.1041
1203.39	43.5869
1206.29	0.782959
1209.18	16.9636
1212.07	48.8002
1214.96	15.8119
1217.86	9.32776
1220.75	15.9878
1223.64	9.63184
1226.53	26.7983
1229.43	26.7119
1232.32	26.6201
1235.21	28.2313
1238.1	4.01538
1241	28.9544
1243.89	22.1373
1246.78	27.5961
