Measurement: Raman, 780 nm, unoriented, Raman Data Processed
Mineral: Maricopaite
Rruff sample: R120147
Ideal chemistry: Ca_2_Pb^2+^_7_(Si_36_Al_12_)O_99_n(H_2_O,OH)
Locality: Moon Anchor mine, Hummingbird Spring,  Big Horn Mts, Maricopa County, Arizona, USA
Source: Bob Jenkins and Ron Gibbs
Description: Spherical radial aggregates of white bladed crystals associated with yellow mimetite
Raman shift (cm-1)	intensity
155.321	0
158.214	1.17938
161.107	0.732849
163.999	2.05173
166.892	2.94858
169.785	2.74085
172.677	2.28522
175.57	2.86624
178.463	4.08624
181.355	2.56509
184.248	3.60629
187.141	4.32245
190.033	5.48453
192.926	4.46396
195.819	4.67715
198.712	3.39154
201.604	4.56773
204.497	4.20039
207.39	2.15385
210.282	0.092484
213.175	0.280304
216.068	1.66824
218.96	0.533432
221.853	3.45863
224.746	5.08021
227.638	4.65491
230.531	6.04828
233.424	8.37293
236.317	10.7652
239.209	12.4092
242.102	13.4627
244.995	14.6873
247.887	12.0357
250.78	10.0026
253.673	6.48332
256.565	4.59853
259.458	2.754
262.351	2.84625
265.244	1.60745
268.136	0.631744
271.029	0.048782
273.922	0.156998
276.814	1.75021
279.707	0.385956
282.6	0.362259
285.493	3.81285
288.385	7.03563
291.278	11.7854
294.171	12.681
297.063	17.5738
299.956	22.6668
302.849	26.4447
305.741	29.2241
308.634	32.1884
311.527	35.5282
314.42	36.551
317.312	37.9148
320.205	38.0226
323.098	38.8816
325.99	36.1052
328.883	35.5571
331.776	33.7414
334.668	34.0489
337.561	34.3273
340.454	32.9602
343.346	32.6089
346.239	30.3978
349.132	26.7873
352.024	23.3584
354.917	19.1433
357.81	16.6003
360.703	14.6812
363.595	10.964
366.488	9.4708
369.381	8.14865
372.273	5.90973
375.166	4.12112
378.059	3.42981
380.952	1.7789
383.844	1.14546
386.737	2.79658
389.63	0.464005
392.522	1.91959
395.415	3.51155
398.308	0.759705
401.2	0.952652
404.093	2.03351
406.986	1.42908
409.878	1.20799
412.771	1.73474
415.664	1.213
418.557	0.032394
421.449	0.951813
424.342	1.43971
427.235	0.660263
430.127	0.706055
433.02	2.59994
435.913	5.74316
438.805	11.612
441.698	19.3383
444.591	27.2179
447.484	35.6554
450.376	45.8467
453.269	55.4627
456.162	57.7932
459.054	55.6784
461.947	46.4999
464.84	31.4473
467.733	17.8803
470.625	9.44946
473.518	3.97319
476.411	2.28807
479.303	1.11974
482.196	2.29012
485.089	3.26697
487.981	5.39654
490.874	9.79817
493.767	11.9308
496.659	15.3393
499.552	16.6201
502.445	15.5353
505.337	12.5724
508.23	8.16244
511.123	6.89082
514.016	4.01277
516.908	2.81786
519.801	2.50554
522.694	1.00726
525.586	0.435287
528.479	1.05345
531.372	0.434586
534.264	0.23291
537.157	2.785
540.05	1.71872
542.943	3.06311
545.835	5.2141
548.728	7.59961
551.621	11.458
554.513	12.1811
557.406	10.7446
560.299	10.6755
563.192	9.31674
566.084	8.48775
568.977	7.23016
571.87	4.18428
574.762	4.49101
577.655	2.84355
580.548	3.25734
583.44	1.79581
586.333	2.16255
589.226	1.15942
592.119	1.02023
595.011	0.385666
597.904	0.376831
600.797	0.050995
603.689	1.18408
606.582	1.47014
609.475	2.18797
612.367	2.67365
615.26	2.1402
618.153	3.22983
621.045	3.18013
623.938	2.50691
626.831	3.45497
629.723	2.93251
632.616	2.34683
635.509	3.40777
638.402	1.3071
641.294	1.55892
644.187	1.31056
647.08	1.03107
649.972	2.07605
652.865	1.74359
655.758	0.313751
658.65	2.04372
661.543	1.38979
664.436	0.303947
667.329	0.08506
670.221	2.57667
673.114	2.01816
676.007	1.59804
678.899	0.864639
681.792	2.06816
684.685	1.13307
687.577	0.850807
690.47	0.934319
693.363	0.97892
696.256	0.479149
699.148	0.421928
702.041	0.342804
704.934	1.0425
707.826	0.524841
710.719	0.287308
713.612	0.342041
716.505	0.866135
719.397	0.044327
722.29	0.209213
725.183	0.226295
728.075	1.02741
730.968	0.557793
733.861	0.175468
736.753	0.039566
739.646	0.314255
742.539	0.40004
745.432	1.33925
748.324	1.62377
751.217	2.66857
754.11	2.94738
757.002	3.51347
759.895	7.05579
762.788	8.34496
765.68	10.4842
768.573	12.011
771.466	12.399
774.359	12.4712
777.251	12.7547
780.144	13.945
783.037	13.3996
785.929	13.666
788.822	14.2888
791.715	13.8961
794.607	13.6723
797.5	15.8387
800.393	20.2816
803.285	26.5946
806.178	34.5049
809.071	43.5083
811.963	51.8115
814.856	58.119
817.749	58.6621
820.642	51.4732
823.534	38.291
826.427	25.9409
829.32	16.4686
832.212	11.3363
835.105	8.82348
837.998	6.61932
840.89	5.91424
843.783	5.05412
846.676	3.61319
849.569	3.61335
852.461	2.93007
855.354	1.42999
858.247	1.24929
861.139	0.416512
864.032	0.179565
866.925	0.080536
869.817	0.159973
872.71	0.011749
875.603	0.072441
878.495	0.333
881.388	1.05081
884.281	1.67172
887.174	0.222458
890.066	2.49194
892.959	1.75249
895.852	2.91272
898.744	4.07975
901.637	5.43288
904.53	5.07883
907.423	6.45846
910.315	8.32676
913.208	7.49459
916.101	9.31072
918.993	10.7709
921.886	10.6539
924.779	10.2906
927.671	10.3083
930.564	10.1645
933.457	9.92683
936.35	9.30872
939.242	8.04027
942.135	6.96086
945.028	5.44308
947.92	4.9457
950.813	4.70594
953.706	3.65268
956.598	2.88224
959.491	2.55773
962.384	2.3806
965.277	1.44077
968.169	2.19004
971.062	1.32484
973.955	0.671135
976.847	0.026688
979.74	0.842018
982.633	1.32261
985.525	2.64
988.418	0.825516
991.311	1.08061
994.203	1.14999
997.096	1.14327
999.989	1.1312
1002.88	1.9136
1005.77	0.997917
1008.67	2.16609
1011.56	1.96302
1014.45	2.30846
1017.35	3.79282
1020.24	4.18869
1023.13	2.77184
1026.02	5.16997
1028.92	6.53413
1031.81	6.20126
1034.7	6.15682
1037.59	7.23681
1040.49	6.31245
1043.38	8.55913
1046.27	7.92728
1049.16	6.77201
1052.06	7.73395
1054.95	7.28561
1057.84	8.63389
1060.74	7.67957
1063.63	6.16487
1066.52	4.97739
1069.41	4.55397
1072.31	4.16406
1075.2	3.08878
1078.09	2.43983
1080.98	1.62266
1083.88	1.00914
1086.77	1.94024
1089.66	0.161087
1092.56	0.136597
1095.45	0.374321
1098.34	1.1369
1101.23	1.34787
1104.13	1.51915
1107.02	1.70882
1109.91	0.19545
1112.8	1.55096
1115.7	2.33589
1118.59	2.93072
1121.48	3.98573
1124.38	5.14552
1127.27	5.95129
1130.16	6.41411
1133.05	6.07219
1135.95	6.93106
1138.84	6.45416
1141.73	2.58676
1144.62	2.13597
1147.52	1.85011
1150.41	0.343369
1153.3	0.734482
1156.19	1.08368
1159.09	2.03546
1161.98	0.534637
1164.87	0.332291
1167.77	1.86914
1170.66	2.96773
1173.55	7.42828
1176.44	8.77328
1179.34	11.7929
1182.23	11.908
1185.12	16.7673
1188.01	17.4844
1190.91	22.6253
1193.8	22.0276
1196.69	23.0465
1199.59	22.55
1202.48	21.5272
1205.37	21.2807
1208.26	20.8777
1211.16	17.8163
1214.05	17.9374
1216.94	15.3506
1219.83	13.1324
1222.73	11.208
1225.62	12.0242
1228.51	5.60358
1231.4	4.95715
1234.3	6.5864
1237.19	9.29569
1240.08	12.7563
1242.97	16.4422
1245.87	21.1653
1248.76	19.944
1251.65	23.1405
1254.55	28.1258
1257.44	30.9603
1260.33	31.057
1263.22	33.2575
1266.12	29.0753
1269.01	23.8203
1271.9	18.0641
1274.8	12.3902
1277.69	6.14453
1280.58	3.5079
1283.47	0.334412
