Measurement: Raman, 780 nm, unoriented, Raman Data Processed
Mineral: Markascherite
Rruff sample: R100030
Ideal chemistry: Cu^2+^_3_Mo^6+^O_4_(OH)_4_
Locality: Childs Aldwinkle mine, Bunker Hill District, Copper Creek, Pinal County, Arizona, USA
Source: Mark Ascher
Description: Green bladed crystals on quartz. This is the type specimen
Measured chemistry: Cu_2.91_Mo_1.029_O_4_(OH)_4_; the lighter shade was probed
Raman shift (cm-1)	intensity
109.854	0
113.228	3.77202
116.603	0.76361
119.978	0.447194
123.353	1.79948
126.728	2.28175
130.102	2.66139
133.477	3.32868
136.852	3.58026
140.227	4.19926
143.602	2.43537
146.977	2.86373
150.351	3.76463
153.726	4.77927
157.101	2.83731
160.476	5.03799
163.851	1.90577
167.226	1.61416
170.6	2.75475
173.975	1.97808
177.35	0.225447
180.725	3.7887
184.1	3.37272
187.474	2.22478
190.849	0.475958
194.224	0.216516
197.599	1.8956
200.974	0.759168
204.349	1.00024
207.723	1.63258
211.098	0.572794
214.473	2.35809
217.848	0.087114
221.223	2.65563
224.597	2.21736
227.972	2.19767
231.347	1.9053
234.722	1.7589
238.097	2.3387
241.471	2.15636
244.846	2.72648
248.221	2.13856
251.596	3.69637
254.971	1.51474
258.346	2.70325
261.72	1.53991
265.095	0.580925
268.47	1.42207
271.845	2.53234
275.22	0.403207
278.594	0.824123
281.969	2.39393
285.344	2.2442
288.719	1.32959
292.094	2.98896
295.469	1.493
298.843	1.92526
302.218	5.14173
305.593	7.63573
308.968	11.1158
312.343	14.3138
315.717	18.3387
319.092	23.5781
322.467	26.901
325.842	28.9593
329.217	23.7954
332.592	19.6712
335.966	13.9555
339.341	10.3363
342.716	4.45629
346.091	4.29919
349.466	1.85034
352.841	2.10486
356.215	0.633956
359.59	0.822065
362.965	0.753049
366.34	2.14544
369.715	2.24684
373.089	0.26767
376.464	1.20724
379.839	0.402662
383.214	1.90944
386.589	2.35477
389.964	2.22618
393.338	1.60416
396.713	3.48749
400.088	1.66771
403.463	2.60214
406.838	3.37346
410.212	4.76562
413.587	2.89288
416.962	3.04966
420.337	4.51243
423.712	1.52713
427.087	3.40215
430.461	2.09092
433.836	3.82817
437.211	3.12609
440.586	3.47802
443.961	3.01584
447.335	1.4249
450.71	1.84302
454.085	1.13784
457.46	1.3574
460.835	1.85844
464.209	3.17597
467.584	0.915559
470.959	1.50011
474.334	1.23446
477.709	2.12187
481.084	0.448819
484.458	0.342623
487.833	2.2704
491.208	1.37783
494.583	0.615759
497.958	0.6983
501.332	1.74477
504.707	1.60348
508.082	0.578557
511.457	1.82124
514.832	0.988669
518.207	0.16578
521.581	0.811023
524.956	1.00208
528.331	0.7547
531.706	0.172418
535.081	1.81378
538.455	2.03691
541.83	1.69112
545.205	0.560714
548.58	0.316203
551.955	1.55691
555.33	1.92164
558.704	2.67704
562.079	2.2391
565.454	2.89397
568.829	0.103819
572.204	0.085476
575.578	0.506827
578.953	1.83519
582.328	1.12437
585.703	0.239818
589.078	3.26001
592.452	1.90715
595.827	2.12686
599.202	1.37983
602.577	1.75193
605.952	2.03167
609.327	3.23892
612.701	1.52032
616.076	1.22179
619.451	1.65948
622.826	1.01836
626.201	0.928326
629.576	2.08039
632.95	0.785923
636.325	1.49546
639.7	1.55948
643.075	1.1664
646.45	0.656274
649.824	0.448959
653.199	2.89505
656.574	0.238694
659.949	2.30438
663.324	0.337743
666.698	0.641364
670.073	2.10622
673.448	1.04615
676.823	0.690672
680.198	2.31463
683.573	1.64731
686.947	0.529064
690.322	2.82813
693.697	1.79013
697.072	1.33537
700.447	0.309207
703.822	2.81037
707.196	2.23641
710.571	2.31207
713.946	3.01188
717.321	0.534446
720.696	3.50498
724.07	0.457965
727.445	1.17947
730.82	1.78506
734.195	1.51455
737.57	1.65933
740.944	3.25255
744.319	2.16389
747.694	0.679603
751.069	1.0122
754.444	0.065167
757.818	0.427708
761.193	1.46634
764.568	1.71467
767.943	2.19185
771.318	0.639475
774.693	1.56174
778.067	0.600813
781.442	2.4213
784.817	3.14181
788.192	0.102509
791.567	0.355238
794.942	0.851829
798.316	0.937386
801.691	0.253227
805.066	1.35439
808.441	0.845614
811.816	0.875134
815.19	0.446231
818.565	2.26545
821.94	0.955343
825.315	0.970715
828.69	2.13669
832.064	1.04103
835.439	0.40316
838.814	1.38683
842.189	2.71255
845.564	2.50451
848.939	1.02587
852.313	2.88486
855.688	4.96126
859.063	4.08885
862.438	3.88378
865.813	6.00879
869.188	4.83689
872.562	7.07669
875.937	5.10383
879.312	5.57232
882.687	6.44309
886.062	7.60211
889.436	8.68581
892.811	11.5985
896.186	25.0733
899.561	31.818
902.936	45.7731
906.311	53.3855
909.685	43.083
913.06	20.4761
916.435	11.5318
919.81	7.622
923.185	3.34671
926.559	1.21082
929.934	0.123554
933.309	2.37041
936.684	1.16808
940.059	3.47988
943.433	0.517231
946.808	0.983456
950.183	1.31432
953.558	1.5135
956.933	0.644194
960.308	1.8809
963.682	1.75985
967.057	0.439972
970.432	0.913807
973.807	1.86901
977.182	0.562944
980.557	0.584601
983.931	1.73504
987.306	1.18641
990.681	1.02402
994.056	0.105445
997.431	1.73407
1000.8	0.667477
1004.18	1.46219
1007.55	2.29955
1010.93	2.32768
1014.3	0.940614
1017.68	1.19534
1021.05	2.10318
1024.43	0.006303
1027.8	2.28646
1031.18	1.93697
1034.55	1.93508
1037.93	2.53644
1041.3	0.058846
1044.68	1.76191
1048.05	0.08535
1051.43	0.783927
1054.8	0.874903
1058.18	3.17375
1061.55	1.99265
1064.93	1.69976
1068.3	2.81219
1071.68	1.69765
1075.05	2.0116
1078.43	0.644153
1081.8	2.16252
1085.18	3.99729
1088.55	0.662657
1091.92	0.063387
1095.3	0.066302
1098.67	1.25716
1102.05	0.910844
1105.42	1.4624
1108.8	2.03589
1112.17	0.749026
1115.55	1.56918
1118.92	2.49764
1122.3	2.13822
1125.67	1.85806
1129.05	2.39899
1132.42	0.874264
1135.8	1.90518
1139.17	1.83807
1142.55	1.17464
1145.92	4.44387
1149.3	1.91237
1152.67	0.566278
1156.05	2.30354
1159.42	1.61613
1162.8	3.39255
1166.17	2.12294
1169.55	1.74803
1172.92	0.779678
1176.3	1.33902
1179.67	1.31006
1183.05	1.80286
1186.42	2.95736
1189.8	2.76496
1193.17	1.56957
1196.55	1.3339
1199.92	1.88549
1203.29	1.14933
1206.67	2.18347
1210.04	3.5035
1213.42	1.23373
1216.79	0.742247
1220.17	1.66864
1223.54	1.44612
1226.92	2.87807
1230.29	1.37962
1233.67	3.92116
1237.04	1.37122
1240.42	2.19453
1243.79	2.16272
1247.17	1.30326
1250.54	2.28757
1253.92	2.64507
1257.29	1.47027
1260.67	1.62816
1264.04	3.69081
1267.42	3.77251
1270.79	3.42617
1274.17	3.35915
1277.54	0.11652
1280.91	1.26229
1284.29	0.320162
