Measurement: Raman, 785 nm, unoriented, Raman Data Processed
Mineral: Masutomilite
Rruff sample: R061008
Ideal chemistry: KLiAlMn^2+^(Si_3_Al)O_10_(F,OH)_2_
Locality: Tanokamiyama, Shiga Prefecture, Japan
Source: Michael Scott
Description: Brownish purple mica fragment
Raman shift (cm-1)	intensity
187.578	0
190.471	11.6299
193.363	38.4004
196.256	55.0303
199.149	54.521
202.042	42.0337
204.934	84.4307
207.827	45.8076
210.72	50.9692
213.612	3.91602
216.505	9.40088
219.398	52.4434
222.29	13.7676
225.183	58.9092
228.076	33.6177
230.969	55.3716
233.861	64.7622
236.754	60.3062
239.647	104.432
242.539	119.728
245.432	153.788
248.325	118.63
251.217	69.5552
254.11	122.21
257.003	115.035
259.895	76.3936
262.788	123.86
265.681	101.651
268.574	93.3208
271.466	4.52979
274.359	30.7334
277.252	47.1533
280.144	96.9546
283.037	73.8555
285.93	99.3657
288.822	57.2095
291.715	39.9844
294.608	24.5098
297.5	13.4185
300.393	47.852
303.286	86.5044
306.179	101.014
309.071	84.186
311.964	29.644
314.857	20.499
317.749	64.021
320.642	26.3657
323.535	18.2632
326.428	40.5918
329.32	66.5718
332.213	100.67
335.106	17.7451
337.998	37.6699
340.891	38.9375
343.784	65.3144
346.676	76.0727
349.569	102.513
352.462	198.8
355.354	199.603
358.247	223.878
361.14	129.522
364.033	97.0239
366.925	107.944
369.818	114.612
372.711	131.189
375.603	142.095
378.496	115.056
381.389	95.5923
384.281	19.4194
387.174	6.80469
390.067	14.1357
392.96	37.8047
395.852	31.7275
398.745	58.7505
401.638	7.61133
404.53	25.3584
407.423	6.18359
410.316	33.8291
413.209	53.6626
416.101	63.4605
418.994	109.358
421.887	77.7568
424.779	93.2236
427.672	125.574
430.565	94.9189
433.457	92.5898
436.35	146.459
439.243	180.023
442.135	194.244
445.028	269.61
447.921	268.272
450.813	262.786
453.706	285.259
456.599	256.504
459.492	221.827
462.384	266.831
465.277	257.935
468.17	249.088
471.062	196.48
473.955	178.266
476.848	124.208
479.74	98.9346
482.633	72.3804
485.526	94.0972
488.419	143.841
491.311	86.4741
494.204	65.2148
497.097	51.5898
499.989	37.4829
502.882	52.1597
505.775	28.1953
508.668	24.0347
511.56	46.7988
514.453	71.7324
517.346	43.7383
520.238	57.8447
523.131	35.0454
526.024	13.8794
528.916	25.4023
531.809	42.4326
534.702	26.3438
537.595	69.3984
540.487	129.158
543.38	23.4297
546.273	30.9292
549.165	9.10889
552.058	11.1206
554.951	4.00635
557.843	46.7207
560.736	19.8911
563.629	42.9951
566.521	9.31055
569.414	43.5732
572.307	10.3935
575.2	53.4043
578.092	89.0596
580.985	108.944
583.878	77.7339
586.77	101.796
589.663	52.668
592.556	86.5054
595.448	142.917
598.341	75.0552
601.234	153.567
604.126	150.783
607.019	184.484
609.912	164.258
612.805	105.064
615.697	121.747
618.59	95.6216
621.483	127.543
624.375	101.956
627.268	55.5781
630.161	63.2407
633.053	61.5776
635.946	88.5644
638.839	46.3735
641.732	110.42
644.624	93.5117
647.517	20.7393
650.41	91.3257
653.302	16.3999
656.195	100.674
659.088	81.0283
661.981	72.897
664.873	36.106
667.766	7.79102
670.659	6.40283
673.551	70.4102
676.444	34.9365
679.337	30.2485
682.229	67.6543
685.122	35.2119
688.015	65.6714
690.908	28.7891
693.8	13.313
696.693	37.4746
699.586	50.3149
702.478	24.8779
705.371	10.4722
708.264	4.86963
711.156	67.7647
714.049	56.2344
716.942	49.7837
719.835	23.1152
722.727	62.6069
725.62	34.8672
728.513	3.08838
731.405	14.2856
734.298	19.3389
737.191	70.8574
740.083	76.8726
742.976	55.3701
745.869	11.0015
748.761	65.5845
751.654	40.0278
754.547	83.6831
757.44	21.8911
760.332	46.8579
763.225	13.0547
766.118	35.1162
769.01	74.0327
771.903	16.9102
774.796	54.312
777.688	9.56201
780.581	21.0703
783.474	32.2105
786.366	77.4907
789.259	78.4443
792.152	49.0737
795.045	126.105
797.937	64.6709
800.83	25.3384
803.723	58.5913
806.615	83.271
809.508	83.9746
812.401	118.376
815.293	82.4268
818.186	100.679
821.079	73.2544
823.972	66.1577
826.864	62.1382
829.757	70.4702
832.65	46.2602
835.542	18.9507
838.435	9.61572
841.328	62.2329
844.221	49.8901
847.113	57.2798
850.006	35.9106
852.899	34.7847
855.791	67.1055
858.684	96.8984
861.577	5.32471
864.469	55.6968
867.362	51.4258
870.255	30.2734
873.148	14.1494
876.04	68.3213
878.933	35.7842
881.826	81.6572
884.718	30.4385
887.611	19.6934
890.504	51.7798
893.396	16.5649
896.289	15.7852
899.182	47.4985
902.074	13.5928
904.967	46.2412
907.86	39.9853
910.753	61.8921
913.645	58.2676
916.538	55.7573
919.431	38.5098
922.323	15.4629
925.216	22.2856
928.109	25.0591
931.001	50.4009
933.894	89.3672
936.787	73.9658
939.68	64.4736
942.572	68.4966
945.465	49.3584
948.358	122.776
951.25	124.112
954.143	160.662
957.036	178.067
959.928	204.176
962.821	218.7
965.714	203.096
968.606	206.934
971.499	222.369
974.392	233.706
977.285	182.331
980.177	204.876
983.07	194.966
985.963	165.321
988.855	120.956
991.748	46.9028
994.641	116.534
997.534	159.601
1000.43	103.318
1003.32	64.9297
1006.21	37.2319
1009.1	85.0225
1012	48.8784
1014.89	99.5938
1017.78	2.49853
1020.67	33.3501
1023.57	20.0574
1026.46	24.0925
1029.35	55.875
1032.25	16.9282
1035.14	55.0659
1038.03	66.3648
1040.92	90.8877
1043.82	79.0791
1046.71	89.4048
1049.6	117.603
1052.49	88.6636
1055.39	61.9043
1058.28	153.98
1061.17	116.206
1064.07	95.1103
1066.96	110.339
1069.85	140.307
1072.74	158.736
1075.64	83.3462
1078.53	102.905
1081.42	97.6084
1084.31	43.5352
1087.21	50.8267
1090.1	60.7688
1092.99	52.427
1095.88	59.4536
1098.78	56.8882
1101.67	35.7837
1104.56	28.8892
1107.46	36.7327
1110.35	37.1919
1113.24	48.5935
1116.13	28.7686
1119.03	22.8291
1121.92	46.9744
1124.81	54.0742
1127.7	6.93384
1130.6	49.7717
1133.49	45.5662
1136.38	5.24072
1139.28	12.0139
1142.17	65.4839
1145.06	16.7935
1147.95	35.3245
1150.85	80.2476
1153.74	69.5176
1156.63	56.9612
1159.53	66.8272
1162.42	32.3962
1165.31	14.7188
1168.2	31.6519
1171.1	31.5659
1173.99	49.7942
1176.88	107.867
1179.77	55.5767
1182.67	44.1794
1185.56	36.4299
1188.45	73.6948
1191.34	61.5376
1194.24	32.8355
1197.13	84.4626
1200.02	50.52
1202.91	14.1577
1205.81	7.46265
1208.7	53.1636
1211.59	56.554
1214.49	83.5632
1217.38	89.4082
1220.27	98.405
1223.16	61.096
1226.06	112.799
1228.95	83.0786
1231.84	109.54
1234.73	6.86499
1237.63	58.9861
1240.52	13.5925
1243.41	102.731
1246.31	94.8032
1249.2	71.8687
1252.09	51.3245
1254.98	15.3855
1257.88	0
