Measurement: Raman, 785 nm, unoriented, Raman Data Processed
Mineral: Mcguinnessite
Rruff sample: R070082
Ideal chemistry: Cu^2+^MgCO_3_(OH)_2_
Locality: Copper King mine, Red Mountain District, Mendocino County, California, USA
Source: James Shigley
Description: Aggregates of greenish blue radially fibrous spherules
Raman shift (cm-1)	intensity
166.629	0
169.522	29.307
172.414	70.9914
175.307	1.78052
178.2	22.1125
181.093	40.2687
183.985	89.2741
186.878	117.088
189.771	161.318
192.663	236.138
195.556	275.488
198.449	282.98
201.341	218.107
204.234	142.064
207.127	87.6827
210.019	47.9728
212.912	12.9042
215.805	10.535
218.698	7.21118
221.59	5.45575
224.483	8.46143
227.376	21.03
230.268	23.368
233.161	41.9382
236.054	56.5251
238.946	74.4437
241.839	97.0559
244.732	99.7056
247.625	118.322
250.517	140.96
253.41	154.457
256.303	150.081
259.195	186.477
262.088	194.862
264.981	193.196
267.873	154.807
270.766	117.049
273.659	100.858
276.552	73.7024
279.444	69.188
282.337	55.3813
285.23	52.8597
288.122	59.2164
291.015	81.9434
293.908	75.479
296.8	79.5392
299.693	86.9813
302.586	75.9342
305.479	103.093
308.371	88.135
311.264	107.447
314.157	86.7948
317.049	70.0898
319.942	64.0198
322.835	52.6649
325.728	47.2064
328.62	24.3696
331.513	20.2835
334.406	42.9094
337.298	7.89123
340.191	8.30212
343.084	8.63232
345.976	17.2001
348.869	0.41217
351.762	5.32739
354.654	4.17383
357.547	13.3008
360.44	13.4063
363.333	2.65723
366.225	6.93543
369.118	3.78308
372.011	18.8029
374.903	0.230286
377.796	25.3814
380.689	0.77063
383.582	19.016
386.474	4.92523
389.367	18.5723
392.26	31.215
395.152	37.2443
398.045	66.259
400.938	79.2454
403.83	85.6814
406.723	102.426
409.616	129.343
412.509	142.375
415.401	121.379
418.294	103.863
421.187	73.0949
424.079	65.2973
426.972	42.1896
429.865	36.6574
432.757	35.0854
435.65	45.6434
438.543	43.5557
441.435	60.1155
444.328	61.8883
447.221	54.713
450.114	53.8075
453.006	60.2937
455.899	67.691
458.792	34.2003
461.684	27.1592
464.577	28.5982
467.47	13.1667
470.363	21.4994
473.255	24.7041
476.148	5.42755
479.041	30.8371
481.933	9.8869
484.826	8.43756
487.719	12.8695
490.611	35.5401
493.504	34.3204
496.397	25.3443
499.289	41.0594
502.182	75.1284
505.075	73.6792
507.968	95.9702
510.86	108.906
513.753	107.772
516.646	123.396
519.538	105.492
522.431	84.7153
525.324	51.693
528.217	16.7469
531.109	24.0417
534.002	4.82468
536.895	14.4116
539.787	11.0243
542.68	16.0774
545.573	9.92563
548.466	4.44257
551.358	0.848022
554.251	10.7774
557.144	1.71033
560.036	25.4692
562.929	7.98865
565.822	7.30167
568.714	4.68515
571.607	9.32608
574.5	22.873
577.392	21.4348
580.285	17.5952
583.178	4.53259
586.071	25.4268
588.963	19.5697
591.856	3.24411
594.749	23.3239
597.641	12.6795
600.534	2.13022
603.427	22.8501
606.319	4.19015
609.212	11.1435
612.105	10.0201
614.997	26.9026
617.89	5.7298
620.783	1.97858
623.676	18.0251
626.568	26.9618
629.461	15.7461
632.354	22.8109
635.246	12.246
638.139	10.2545
641.032	30.351
643.924	23.9595
646.817	28.6254
649.71	8.13028
652.603	32.5323
655.495	14.8545
658.388	15.7362
661.281	5.46619
664.173	30.2162
667.066	12.1812
669.959	21.0943
672.851	21.5142
675.744	32.5676
678.637	16.9481
681.53	0.805603
684.422	14.1433
687.315	22.1288
690.208	34.2463
693.1	31.444
695.993	35.8714
698.886	32.4879
701.779	46.8528
704.671	66.4656
707.564	51.1428
710.457	71.7383
713.349	33.2824
716.242	35.6601
719.135	36.9129
722.027	15.3489
724.92	32.1258
727.813	23.2032
730.706	1.75833
733.598	6.31613
736.491	30.1044
739.384	10.3886
742.276	6.5307
745.169	23.5382
748.062	22.6818
750.954	14.868
753.847	24.3094
756.74	14.9433
759.633	39.7899
762.525	8.14108
765.418	22.434
768.311	29.2889
771.203	4.44916
774.096	17.9976
776.989	18.9198
779.881	15.024
782.774	12.963
785.667	18.4745
788.559	3.59695
791.452	20.0262
794.345	24.4306
797.238	1.63843
800.13	11.9375
803.023	13.5207
805.916	5.32831
808.808	19.2167
811.701	2.73508
814.594	12.0318
817.486	1.87466
820.379	22.7969
823.272	17.3342
826.165	24.9118
829.057	39.5533
831.95	13.788
834.843	32.2186
837.735	43.9538
840.628	22.9805
843.521	23.2676
846.413	5.70068
849.306	21.5666
852.199	3.06787
855.092	14.3139
857.984	21.0031
860.877	6.7038
863.77	0.395721
866.662	16.3
869.555	4.57129
872.448	17.2237
875.341	20.848
878.233	29.5216
881.126	0.211182
884.019	9.69241
886.911	36.8066
889.804	17.1731
892.697	31.7637
895.589	25.6558
898.482	24.5541
901.375	15.5084
904.268	9.12891
907.16	30.1865
910.053	18.983
912.946	46.283
915.838	20.3335
918.731	16.3897
921.624	24.2234
924.516	16.9915
927.409	3.28
930.302	10.1215
933.194	12.5788
936.087	20.3264
938.98	0.457275
941.873	11.9593
944.765	17.8423
947.658	3.15964
950.551	10.5148
953.443	8.58258
956.336	12.8128
959.229	19.7257
962.121	16.1401
965.014	20.9322
967.907	3.46378
970.8	8.15692
973.692	0.302429
976.585	3.11014
979.478	13.52
982.37	0.36084
985.263	6.29694
988.156	8.53705
991.048	2.57062
993.941	3.14005
996.834	21.7716
999.727	20.644
1002.62	13.4877
1005.51	12.8624
1008.4	16.0742
1011.3	2.35098
1014.19	28.7557
1017.08	9.30203
1019.98	1.51379
1022.87	6.90927
1025.76	13.3392
1028.65	13.3842
1031.55	2.34631
1034.44	29.8757
1037.33	20.9073
1040.22	13.1604
1043.12	27.549
1046.01	21.0199
1048.9	34.5802
1051.8	37.6815
1054.69	28.3954
1057.58	36.3424
1060.47	44.9876
1063.37	46.0602
1066.26	47.8174
1069.15	47.6415
1072.04	87.0296
1074.94	79.9153
1077.83	138.583
1080.72	170.147
1083.62	248.684
1086.51	352.288
1089.4	329.4
1092.29	272.279
1095.19	160.613
1098.08	102.025
1100.97	69.3852
1103.86	37.7673
1106.76	38.188
1109.65	24.7074
1112.54	20.3769
1115.43	20.602
1118.33	11.3567
1121.22	0.162689
1124.11	6.87817
1127.01	10.7545
1129.9	21.8972
1132.79	16.7614
1135.68	25.6163
1138.58	0.27124
1141.47	15.1791
1144.36	20.9729
1147.25	23.3029
1150.15	17.3075
1153.04	3.99087
1155.93	0.822998
1158.83	7.64639
1161.72	1.22742
1164.61	15.0676
1167.5	21.6444
1170.4	30.6899
1173.29	16.305
1176.18	9.94669
1179.07	18.8879
1181.97	1.51941
1184.86	2.86487
1187.75	5.06216
1190.64	5.49146
1193.54	12.4065
1196.43	11.6
1199.32	11.9454
1202.22	19.2365
1205.11	36.6884
1208	16.0593
1210.89	14.3059
1213.79	8.63116
1216.68	17.8834
1219.57	24.1627
1222.46	10.9951
1225.36	0.12674
1228.25	0.815094
1231.14	21.099
1234.04	16.4215
1236.93	26.0769
1239.82	3.78561
1242.71	11.4979
