Measurement: Raman, 780 nm, unoriented, Raman Data Processed
Mineral: Meieranite
Rruff sample: R140947
Ideal chemistry: Na_2_Sr_3_MgSi_6_O_17_
Locality: Wessels mine, Kalahari manganese field, Northern Cape Province, South Africa
Source: Jaco and Tania Janse van Nieuwenhuizen
Description: Aggregates of granular blue crystals, associated with massive pale green sugilite, prismatic grey aegirine and bladed white pectolite. Type sample
Measured chemistry: Na_1.96_(Sr_2.91_Ba_0.03_Ca_0.03_Pb_0.02_)_Σ2.99_(Mg_0.62_Mn_0.28_Co_0.07_Fe_0.01_)_Σ0.98_Si_6.03_O_17_ ; = bright phase. Grey phase is sugilite.
Raman shift (cm-1)	intensity
132.54	0
135.433	2.32422
138.325	38.5896
141.218	46.616
144.111	30.9744
147.003	45.3396
149.896	53.8186
152.789	28.5425
155.681	3.56787
158.574	2.66724
161.467	3.61206
164.359	11.0581
167.252	19.7546
170.145	16.1284
173.038	18.4536
175.93	20.6191
178.823	11.8159
181.716	13.3442
184.608	10.5222
187.501	7.71924
190.394	20.2544
193.286	13.3472
196.179	12.3921
199.072	10.3914
201.965	18.1426
204.857	18.0647
207.75	15.904
210.643	1.75586
213.535	4.68701
216.428	4.48242
219.321	1.37158
222.214	15.511
225.106	19.8635
227.999	20.6885
230.892	24.6179
233.784	43.0032
236.677	63.2415
239.57	41.8867
242.462	26.9463
245.355	25.3716
248.248	30.667
251.14	28.6792
254.033	18.2476
256.926	7.04883
259.818	12.0635
262.711	8.86963
265.604	13.019
268.497	16.5425
271.389	19.3867
274.282	8.52393
277.175	14.0493
280.067	12.2524
282.96	17.0395
285.853	11.8203
288.745	28.5879
291.638	44.3545
294.531	47.3491
297.424	60.2944
300.316	65.4824
303.209	52.2554
306.102	44.4815
308.994	43.6289
311.887	47.0273
314.78	49.6733
317.673	51.7949
320.565	64.6284
323.458	52.3852
326.351	24.9038
329.243	8.4292
332.136	7.04932
335.029	15.1162
337.921	23.625
340.814	14.2656
343.707	16.2871
346.599	12.8354
349.492	15.3088
352.385	4.87354
355.278	13.3694
358.17	2.29102
361.063	12.5986
363.956	22.7895
366.848	31.947
369.741	43.3301
372.634	19.9299
375.526	19.4619
378.419	24.9004
381.312	22.3086
384.205	41.2039
387.097	57.6714
389.99	69.3594
392.883	74.2341
395.775	99.4504
398.668	118.288
401.561	130.143
404.453	102.788
407.346	75.4197
410.239	68.4565
413.132	47.7568
416.024	41.0625
418.917	41.3159
421.81	43.2029
424.702	23.9966
427.595	31.6248
430.488	17.3572
433.38	10.1252
436.273	8.31372
439.166	1.93652
442.058	2.14062
444.951	0.232178
447.844	1.24585
450.737	3.44116
453.629	9.59961
456.522	15.9331
459.415	33.1177
462.307	30.8601
465.2	33.675
468.093	40.9336
470.986	37.4668
473.878	36.416
476.771	23.8616
479.664	27.9058
482.556	38.114
485.449	37.5674
488.342	41.8472
491.234	40.8066
494.127	40.3306
497.02	38.2561
499.913	24.9448
502.805	27.9468
505.698	30.1436
508.591	30.9724
511.483	29.209
514.376	32.5615
517.269	29.4002
520.161	27.3823
523.054	17.2483
525.947	25.9285
528.84	12.7332
531.732	16.6001
534.625	21.7559
537.518	10.3181
540.41	12.8013
543.303	1.67798
546.196	4.92749
549.088	0.781982
551.981	11.7578
554.874	13.3606
557.766	10.5881
560.659	2.14233
563.552	0.208008
566.444	8.24683
569.337	5.11572
572.23	12.7512
575.123	18.7339
578.015	4.64331
580.908	21.8721
583.801	1.27832
586.693	10.6484
589.586	1.08106
592.479	4.26001
595.371	7.72998
598.264	18.1792
601.157	31.0442
604.05	27.2073
606.942	26.8423
609.835	28.6145
612.728	40.3394
615.62	41.6528
618.513	47.2996
621.406	49.679
624.298	85.6289
627.191	120.56
630.084	197.877
632.977	369.145
635.869	550.241
638.762	432.745
641.655	220.468
644.547	140.248
647.44	114.392
650.333	92.6008
653.226	70.7212
656.118	97.7244
659.011	168.206
661.904	223.952
664.796	266.703
667.689	208.717
670.582	113.26
673.474	77.187
676.367	44.7366
679.26	47.8862
682.153	34.3618
685.045	22.458
687.938	27.218
690.831	24.5669
693.723	11.5586
696.616	5.46094
699.509	11.1538
702.401	0.575439
705.294	1.37134
708.187	1.92993
711.079	1.37524
713.972	6.98144
716.865	14.511
719.758	10.9475
722.65	8.76733
725.543	6.96069
728.436	3.4624
731.328	20.3713
734.221	7.60498
737.114	17.8088
740.006	10.2793
742.899	9.88452
745.792	9.46021
748.684	18.0938
751.577	17.4177
754.47	25.6597
757.363	22.2307
760.255	27.0706
763.148	42.0147
766.041	59.7307
768.933	67.8274
771.826	43.4204
774.719	25.844
777.611	21.2825
780.504	11.6782
783.397	5.46655
786.29	5.54858
789.182	3.99658
792.075	13.6021
794.968	9.25977
797.86	6.8855
800.753	5.18945
803.646	20.9629
806.538	33.425
809.431	27.2815
812.324	7.91699
815.217	25.303
818.109	41.852
821.002	36.8096
823.895	36.8826
826.787	20.7966
829.68	18.6831
832.573	19.5984
835.466	21.915
838.358	19.5584
841.251	10.3332
844.144	10.019
847.036	14.842
849.929	22.6599
852.822	16.0093
855.714	13.7852
858.607	17.3149
861.5	3.60791
864.393	3.16821
867.285	12.4675
870.178	7.27197
873.071	9.04321
875.963	4.95557
878.856	4.97681
881.749	5.53662
884.641	16.523
887.534	4.41992
890.427	0.269775
893.319	4.71289
896.212	5.47241
899.105	7.67871
901.997	3.57861
904.89	19.23
907.783	27.7654
910.676	11.1719
913.568	14.896
916.461	25.7991
919.354	31.7019
922.246	12.208
925.139	22.3577
928.032	19.7634
930.924	39.988
933.817	59.0356
936.71	101.549
939.603	148.967
942.495	156.254
945.388	82.3789
948.281	53.9243
951.173	38.6494
954.066	30.4761
956.959	20.4988
959.851	42.721
962.744	19.8015
965.637	13.0537
968.529	13.0352
971.422	15.8508
974.315	20.9114
977.208	35.6636
980.1	26.7583
982.993	11.8374
985.886	0.800781
988.778	2.96191
991.671	1.7688
994.564	7.04297
997.457	17.4912
1000.35	41.7251
1003.24	50.8403
1006.13	35.0427
1009.03	18.6436
1011.92	4.67261
1014.81	4.76343
1017.71	11.2454
1020.6	1.98144
1023.49	1.73999
1026.38	6.53223
1029.28	7.81836
1032.17	30.4133
1035.06	38.833
1037.95	47.3083
1040.85	41.2353
1043.74	42.8733
1046.63	29.7568
1049.53	28.1606
1052.42	26.511
1055.31	53.6836
1058.2	76.8015
1061.1	107.622
1063.99	147.453
1066.88	185.125
1069.77	149.034
1072.67	92.4119
1075.56	66.5171
1078.45	44.5999
1081.35	59.5376
1084.24	55.3657
1087.13	51.9043
1090.02	50.9441
1092.92	50.7773
1095.81	45.3167
1098.7	55.9487
1101.59	52.0102
1104.49	31.9229
1107.38	41.4458
1110.27	23.8025
1113.16	5.70898
1116.06	9.31885
1118.95	4.81885
1121.84	2.69946
1124.73	3.93921
1127.63	8.75464
1130.52	2.28833
1133.41	3.28223
1136.31	4.96851
1139.2	19.3435
1142.09	13.2466
1144.98	22.7671
1147.88	25.8428
1150.77	30.842
1153.66	48.3232
1156.56	47.4309
1159.45	62.1482
1162.34	76.0413
1165.23	103.418
1168.13	132.129
1171.02	165.033
1173.91	220.311
1176.8	263.708
1179.7	335.516
1182.59	362.429
1185.48	410.133
1188.38	444.364
1191.27	491.108
1194.16	513.885
1197.05	532.875
1199.94	550.09
1202.84	531.656
1205.73	510.164
1208.62	472.206
1211.52	416.684
1214.41	366.212
1217.3	320.806
1220.19	270.87
1223.09	228.284
1225.98	195.073
1228.87	166.953
1231.77	131.516
1234.66	115.545
1237.55	86.1489
1240.44	53.1914
1243.34	36.5869
1246.23	40.9429
1249.12	7.80713
1252.01	12.6758
1254.91	3.91553
1257.8	7.53223
1260.69	7.93848
1263.59	18.5366
1266.48	15.582
1269.37	1.48096
1272.26	6.71289
1275.16	3.87695
1278.05	12.3608
1280.94	14.2358
1283.83	15.459
