Measurement: Raman, 532 nm, unoriented, Raman Data Processed
Mineral: Meionite
Rruff sample: R040169
Ideal chemistry: Ca_4_Al_6_Si_6_O_24_(CO_3_)
Locality: Black Hills, South Dakota, USA
Source: University of Arizona Mineral Museum
Description: White massive
Measured chemistry: (Ca_0.73_Na_0.24_K_0.03_)_4_(Si_0.58_Al_0.41_)_12_O_24_((CO_3_)_0.90_Cl_0.10_)
Raman shift (cm-1)	intensity
141.466	0
144.841	36.8242
148.215	214.351
151.59	458.005
154.965	805.317
158.34	924.36
161.715	967.286
165.09	786.855
168.464	551.74
171.839	310.651
175.214	97.0811
178.589	31.1387
181.964	42.0244
185.339	3.37647
188.713	79.7019
192.088	132.905
195.463	170.076
198.838	193.619
202.213	215.25
205.587	248.11
208.962	258.523
212.337	257.437
215.712	294.894
219.087	369.4
222.462	357.901
225.836	360.419
229.211	421.12
232.586	443.45
235.961	432.624
239.336	481.474
242.71	585.944
246.085	721.072
249.46	948.478
252.835	1108.29
256.21	1314.58
259.584	1210.45
262.959	938.844
266.334	647.452
269.709	403.509
273.084	266.091
276.459	163.642
279.833	181.081
283.208	163.113
286.583	221.933
289.958	332.366
293.333	385.169
296.707	346.399
300.082	259.27
303.457	120.228
306.832	45.813
310.207	22.9944
313.582	18.374
316.956	46.5857
320.331	3.73291
323.706	9.8706
327.081	1.91211
330.456	35.3232
333.83	25.1162
337.205	31.1038
340.58	155.964
343.955	176.512
347.33	197.805
350.705	324.647
354.079	463.25
357.454	546.002
360.829	519.027
364.204	434.914
367.579	340.892
370.954	254.127
374.328	199.711
377.703	192.722
381.078	208.49
384.453	256.477
387.828	195.366
391.202	178.336
394.577	180.736
397.952	132.897
401.327	103.073
404.702	53.9595
408.077	102.747
411.451	189.046
414.826	315.301
418.201	421.825
421.576	549.214
424.951	502.076
428.325	433.816
431.7	361.802
435.075	468.746
438.45	861.285
441.825	1420.72
445.2	2359.61
448.574	3435.3
451.949	4242.6
455.324	3870.79
458.699	3303.86
462.074	2878.9
465.448	2228.91
468.823	1559.06
472.198	1098.51
475.573	741.916
478.948	519.358
482.322	366.859
485.697	207.67
489.072	208.906
492.447	72.4907
495.822	8.14111
499.197	9.37744
502.571	38.1645
505.946	12.4526
509.321	25.7856
512.696	81.2725
516.071	282.786
519.446	698.049
522.82	1200.69
526.195	1874.23
529.57	2434.25
532.945	2178.93
536.32	1345.86
539.694	743.3
543.069	444.988
546.444	266.593
549.819	174.399
553.194	121.094
556.568	140.689
559.943	100.431
563.318	85.4619
566.693	94.2847
570.068	169.921
573.443	158.386
576.817	116.307
580.192	190.447
583.567	217.96
586.942	78.6143
590.317	103.745
593.692	22.0513
597.066	101.054
600.441	96.3169
603.816	58.2651
607.191	74.6172
610.566	37.0215
613.94	18.2695
617.315	14.3604
620.69	11.623
624.065	1.16455
627.44	18.6831
630.814	59.062
634.189	43.648
637.564	32.6724
640.939	55.4082
644.314	11.6377
647.689	48.459
651.063	8.55566
654.438	6.81982
657.813	6.40234
661.188	23.3975
664.563	82.3154
667.938	41.6899
671.312	38.3613
674.687	96.2417
678.062	104.574
681.437	20.332
684.812	37.2964
688.186	27.332
691.561	3.56397
694.936	71.769
698.311	8.56885
701.686	59.3643
705.061	25.9087
708.435	51.0337
711.81	89.1773
715.185	142.165
718.56	103.121
721.935	54.2944
725.309	185.265
728.684	241.901
732.059	256.738
735.434	363.517
738.809	407.849
742.183	599.894
745.558	730.029
748.933	952.556
752.308	1135.38
755.683	1331.87
759.058	1527.46
762.432	1489.81
765.807	1335.5
769.182	950.862
772.557	710.829
775.932	464.122
779.307	258.177
782.681	150.411
786.056	99.9385
789.431	108.759
792.806	66.1728
796.181	33.252
799.555	44.7324
802.93	83.3516
806.305	14.7627
809.68	20.835
813.055	138.18
816.429	25.4512
819.804	98.9541
823.179	3.19727
826.554	38.8291
829.929	78.8877
833.304	63.0557
836.678	9.81836
840.053	44.1836
843.428	45.7559
846.803	37.7539
850.178	137.115
853.553	30.1016
856.927	76.2236
860.302	57.5967
863.677	99.1494
867.052	127.426
870.427	108.154
873.801	173.981
877.176	91.3418
880.551	85.5557
883.926	79.3086
887.301	60.1006
890.676	91.0947
894.05	56.4355
897.425	10.1328
900.8	76.6035
904.175	58.9238
907.55	104.922
910.924	21.6123
914.299	12.8555
917.674	14.9746
921.049	74.1641
924.424	8.85156
927.798	32.0215
931.173	53.0303
934.548	26.2881
937.923	4.82812
941.298	46.1348
944.673	6.36816
948.047	108.655
951.422	28.8877
954.797	48.8301
958.172	35.4414
961.547	53.6103
964.922	58.5732
968.296	39.5205
971.671	71.3486
975.046	95.2744
978.421	113.222
981.796	97.165
985.17	96.7139
988.545	85.3057
991.92	81.3008
995.295	100.89
998.67	67.0606
1002.04	17.6064
1005.42	104.319
1008.79	146.096
1012.17	82.1553
1015.54	140.274
1018.92	209.96
1022.29	239.673
1025.67	294.433
1029.04	277.225
1032.42	387.667
1035.79	295.692
1039.17	349.328
1042.54	304.227
1045.92	336.331
1049.29	228.351
1052.67	223.059
1056.04	357.848
1059.42	380.573
1062.79	322.804
1066.17	383.61
1069.54	471.747
1072.92	624.119
1076.29	791.152
1079.66	1219.88
1083.04	1723.23
1086.41	2291.44
1089.79	2497.98
1093.16	2489.57
1096.54	2319.26
1099.91	2154.11
1103.29	1405.37
1106.66	596.565
1110.04	246.772
1113.41	34.6162
1116.79	24.8457
1120.16	6.09277
1123.54	1.05371
1126.91	72.3154
1130.29	46.8428
1133.66	17.0615
1137.04	10.1084
1140.41	0.834961
1143.79	69.1943
1147.16	1.19238
1150.54	31.9258
1153.91	31.5752
1157.29	133.003
1160.66	107.095
1164.04	52.5605
1167.41	196.753
1170.79	66.7998
1174.16	186.617
1177.54	140.935
1180.91	82.6269
1184.29	190.264
1187.66	245.704
1191.03	174.362
1194.41	289.015
1197.78	251.935
1201.16	142.647
1204.53	111.172
1207.91	109.1
1211.28	187.051
1214.66	22.2168
1218.03	106.637
1221.41	10.6016
1224.78	33.4863
1228.16	88.2734
1231.53	42.6191
1234.91	141.426
1238.28	90.125
1241.66	27.9902
1245.03	79.7481
1248.41	104.834
1251.78	83.4902
1255.16	63.8145
1258.53	45.123
1261.91	86.668
1265.28	118.33
1268.65	56.041
1272.03	92.541
1275.4	115.684
1278.78	15.543
1282.15	116.867
1285.53	91.7519
1288.9	152.029
1292.28	64.6094
1295.65	167.295
1299.03	20.3906
