Measurement: Raman, 514 nm, unoriented, Raman Data Processed
Mineral: Meionite
Rruff sample: R040169
Ideal chemistry: Ca_4_Al_6_Si_6_O_24_(CO_3_)
Locality: Black Hills, South Dakota, USA
Source: University of Arizona Mineral Museum
Description: White massive
Measured chemistry: (Ca_0.73_Na_0.24_K_0.03_)_4_(Si_0.58_Al_0.41_)_12_O_24_((CO_3_)_0.90_Cl_0.10_)
Raman shift (cm-1)	intensity
182.114	0
186.251	41.446
190.387	177.526
194.52	558.317
198.652	666.193
202.782	607.158
206.909	814.929
211.035	462.268
215.159	364.619
219.281	537.954
223.4	701.096
227.518	996.784
231.634	1058.84
235.748	1240.92
239.86	1375.38
243.97	1948.63
248.079	2763.33
252.185	3892.8
256.289	5032.69
260.391	4864.47
264.492	3477.86
268.59	2400.59
272.687	1609.42
276.781	1157.5
280.874	1028.25
284.964	1025.83
289.053	1231.29
293.14	1595.86
297.225	1150.02
301.308	524.005
305.389	254.47
309.468	229.01
313.545	15.729
317.62	49.299
321.693	43.652
325.765	31.374
329.834	181.807
333.902	56.106
337.967	3.152
342.031	254.89
346.093	553.455
350.153	826.923
354.21	1212.99
358.267	1462.89
362.321	1265.16
366.373	984.589
370.423	1005.98
374.471	699.286
378.518	846.508
382.563	897.464
386.605	953.768
390.646	991.814
394.685	903.498
398.722	910.219
402.757	943.28
406.79	1237.52
410.821	1436.7
414.851	1694.2
418.878	2368.15
422.904	2562.99
426.927	2282.76
430.949	1706.55
434.969	1569.61
438.987	1901.68
443.003	3006.24
447.018	5294.76
451.03	8016.38
455.041	8060.99
459.049	6768.92
463.056	5801.07
467.061	4391.64
471.064	2906.54
475.065	2237.76
479.064	1498.78
483.062	1219.5
487.057	1024.53
491.051	716.429
495.043	526.688
499.032	414.524
503.02	434.884
507.007	423.855
510.991	416.806
514.973	599.854
518.954	1295.9
522.933	2605.69
526.91	5422.65
530.885	7388.86
534.858	5324.06
538.829	3028.89
542.799	1772.72
546.766	1051.75
550.732	788.516
554.696	453.323
558.658	533.601
562.618	373.317
566.576	267.457
570.533	458.014
574.488	343.017
578.44	464.478
582.391	581.434
586.341	405.884
590.288	446.902
594.233	19.404
598.177	204.324
602.119	28.66
606.059	147.396
609.997	21.529
613.933	57.99
617.868	28.738
621.801	158.855
625.731	4.754
629.66	83
633.588	183.246
637.513	81.492
641.437	77.637
645.358	130.732
649.278	176.932
653.196	58.83
657.113	70.906
661.027	200.273
664.94	11.008
668.851	314.559
672.76	122.941
676.667	190.393
680.572	223.271
684.476	234.904
688.378	274.527
692.278	539.021
696.176	325.291
700.072	444.721
703.967	471.225
707.86	631.027
711.751	653.996
715.64	468.137
719.527	711.828
723.413	546.725
727.297	852.539
731.179	1094.89
735.059	1278.3
738.937	1561.18
742.814	1881.78
746.689	2294
750.562	3060.81
754.433	3559.42
758.303	4370.49
762.17	4876.91
766.036	4338.22
769.901	3053.31
773.763	1998.97
777.624	1367.56
781.482	836.639
785.339	556.088
789.195	232.92
793.048	152.52
796.9	349.355
800.75	53.797
804.598	26.6
808.445	130.221
812.289	55.314
816.132	39.568
819.973	34.803
823.813	109.096
827.65	105.379
831.486	216.596
835.32	575.812
839.152	39.73
842.983	192.457
846.812	20.01
850.639	185.201
854.464	83.299
858.288	143.066
862.11	120.805
865.93	149.426
869.748	187.48
873.564	175.105
877.379	5.756
881.192	138.867
885.004	95.221
888.813	131.111
892.621	92.545
896.427	229.475
900.232	408.846
904.034	66.781
907.835	135.283
911.634	283.344
915.432	255.064
919.227	356.639
923.021	350.682
926.813	503.541
930.604	441.107
934.393	396.465
938.18	240.514
941.965	365.57
945.749	308.551
949.53	455.268
953.311	439.041
957.089	529.77
960.866	367.984
964.641	638.893
968.414	751.188
972.185	674.633
975.955	825.9
979.723	750.975
983.49	875.33
987.254	1217.49
991.017	1134.13
994.779	1258.1
998.538	1289.63
1002.3	1237.99
1006.05	1377.27
1009.81	1481.21
1013.56	1682.97
1017.31	1594.84
1021.06	1590.19
1024.81	1918.89
1028.55	2013.32
1032.3	2664.34
1036.04	2574.33
1039.78	2330.3
1043.52	2123.09
1047.26	2227.27
1050.99	2288.55
1054.73	2099.98
1058.46	2142.86
1062.19	1930.68
1065.92	2209.06
1069.65	2440.62
1073.37	2195.91
1077.1	2256.09
1080.82	2774.49
1084.54	3676.66
1088.26	4882.81
1091.97	4083.89
1095.69	3521.33
1099.4	3534
1103.12	2886.18
1106.83	1783.08
1110.54	807.842
1114.24	226.516
1117.95	595.848
1121.65	489.607
1125.35	492.227
1129.06	213.117
1132.75	111.32
1136.45	18.145
1140.15	348.49
1143.84	52.268
1147.53	151.783
1151.22	11.457
1154.91	136.156
1158.6	160.676
1162.28	132.656
1165.97	187.137
1169.65	242.621
1173.33	183.074
1177.01	412.926
1180.69	341.324
1184.36	430.797
1188.04	323.02
1191.71	271.637
1195.38	342.168
1199.05	674.207
1202.71	315.453
1206.38	649.648
1210.04	197.086
1213.71	127.777
1217.37	252.379
1221.03	130.371
1224.68	139.91
1228.34	317.625
1231.99	176.445
1235.65	443.27
1239.3	613.051
1242.95	353.207
1246.59	178.391
1250.24	152.816
1253.88	329.98
1257.53	311.422
1261.17	431.934
1264.81	246.82
1268.45	411.098
1272.08	305.285
1275.72	242.68
1279.35	262.906
1282.98	256.023
1286.61	549.852
1290.24	288.918
1293.87	202.66
1297.49	538.316
1301.11	547.539
1304.73	189.93
1308.36	319.109
1311.97	562.219
1315.59	96.547
1319.2	364.141
1322.82	324.387
1326.43	283.137
1330.04	407.75
1333.65	377.781
1337.26	311.945
1340.86	219.574
1344.47	214.906
1348.07	470.879
1351.67	441.551
1355.27	310.555
1358.87	403.633
1362.46	527.137
1366.06	204.863
