Measurement: Raman, 780 nm, unoriented, Raman Data Processed
Mineral: Melanovanadite
Rruff sample: R060131
Ideal chemistry: CaV^4+^_2_V^5+^_2_O_10_5H_2_O
Locality: Minas Ragra, Peru
Source: University of Arizona Mineral Museum
Description: Sprays of black prismatic crystals
Measured chemistry: (Ca_0.73_[box]_0.27_)_Σ=1_(V^5+^_2.54_V^4+^_1.46_)_Σ=4_O_10_·5H_2_O
Raman shift (cm-1)	intensity
145.54	0
148.433	0.023809
151.326	0.656358
154.218	0.585099
157.111	1.1212
160.004	1.42405
162.897	0.597347
165.789	0.677266
168.682	0.533889
171.575	0.868711
174.467	0.17191
177.36	0.419981
180.253	0.589752
183.145	0.053911
186.038	0.063679
188.931	0.129279
191.823	0.1662
194.716	0.398725
197.609	0.048864
200.502	0.485826
203.394	0.408191
206.287	0.096764
209.18	0.259121
212.072	0.209645
214.965	0.502743
217.858	0.707768
220.75	1.24122
223.643	0.596314
226.536	0.600358
229.429	0.654921
232.321	0.762269
235.214	1.10653
238.107	0.922732
240.999	1.08046
243.892	1.54303
246.785	1.26984
249.677	0.645874
252.57	0.944769
255.463	0.560705
258.356	0.541756
261.248	0.188596
264.141	0.311805
267.034	0.891088
269.926	0.017647
272.819	0.039257
275.712	0.170204
278.604	0.327309
281.497	0.641315
284.39	0.773755
287.283	0.002565
290.175	0.114873
293.068	0.027609
295.961	0.10482
298.853	0.442115
301.746	0.54179
304.639	0.150204
307.531	0.700698
310.424	0.635142
313.317	0.653943
316.209	0.542094
319.102	0.367726
321.995	0.520497
324.888	0.893554
327.78	0.443338
330.673	0.262303
333.566	0.523978
336.458	0.849019
339.351	0.647956
342.244	0.88132
345.137	1.0631
348.029	0.533741
350.922	0.630526
353.815	0.742751
356.707	1.13086
359.6	0.839775
362.493	0.037626
365.385	0.475121
368.278	0.076004
371.171	0.550082
374.063	0.413952
376.956	0.274326
379.849	0.173941
382.741	0.01032
385.634	0.466671
388.527	0.045284
391.42	0.011794
394.312	0.394851
397.205	0.586715
400.098	0.874233
402.99	0.323104
405.883	0.435481
408.776	0.44982
411.668	0.470446
414.561	0.830878
417.454	0.765876
420.347	0.94936
423.239	0.924883
426.132	0.894202
429.025	0.804825
431.917	0.823084
434.81	0.882744
437.703	0.966541
440.596	0.988021
443.488	0.865717
446.381	0.841265
449.274	0.186725
452.166	0.690646
455.059	0.31433
457.952	0.616635
460.844	0.966652
463.737	0.299059
466.63	0.619764
469.522	0.201978
472.415	0.417261
475.308	0.425825
478.201	0.094338
481.093	0.547163
483.986	0.635833
486.879	0.390603
489.771	0.290298
492.664	0.57922
495.557	0.071322
498.45	0.308357
501.342	0.680891
504.235	0.449322
507.128	0.45628
510.02	0.211651
512.913	0.074611
515.806	0.224569
518.698	0.19401
521.591	0.005884
524.484	0.239594
527.376	0.197573
530.269	0.490493
533.162	0.440331
536.055	0.27378
538.947	0.090177
541.84	0.096391
544.733	0.090353
547.625	0.289735
550.518	0.716123
553.411	0.134324
556.303	0.59055
559.196	0.055773
562.089	0.30207
564.981	0.081372
567.874	0.380296
570.767	0.448872
573.66	0.629487
576.552	0.51836
579.445	0.804092
582.338	0.682141
585.23	0.489763
588.123	0.471408
591.016	0.509253
593.909	0.372653
596.801	0.359486
599.694	0.906741
602.587	0.494589
605.479	0.200288
608.372	1.04124
611.265	0.426256
614.157	0.038351
617.05	0.58314
619.943	0.600968
622.836	0.908194
625.728	0.456149
628.621	0.101885
631.514	0.300105
634.406	0.472831
637.299	0.322342
640.192	0.082818
643.084	0.640115
645.977	0.778535
648.87	0.134008
651.763	0.291113
654.655	0.876197
657.548	0.545837
660.441	0.667689
663.333	0.465634
666.226	0.254905
669.119	0.818641
672.011	0.05872
674.904	0.777681
677.797	0.512942
680.689	0.673846
683.582	0.118967
686.475	0.472682
689.368	0.385405
692.26	0.106742
695.153	0.976534
698.046	0.455388
700.938	0.615605
703.831	0.795415
706.724	0.378155
709.616	0.696088
712.509	0.908829
715.402	0.640861
718.294	1.35311
721.187	0.618466
724.08	0.979814
726.973	0.173643
729.865	0.902932
732.758	0.035277
735.651	0.084644
738.543	0.555915
741.436	0.059335
744.329	0.37914
747.221	0.164269
750.114	0.063701
753.007	0.127361
755.9	0.017837
758.792	0.334303
761.685	0.420454
764.578	0.397936
767.47	0.483136
770.363	0.502697
773.256	0.932519
776.149	0.795816
779.041	0.685092
781.934	0.672125
784.827	0.768401
787.719	1.26911
790.612	0.871694
793.505	1.49194
796.397	1.67796
799.29	2.21898
802.183	2.51579
805.075	3.34037
807.968	4.26732
810.861	4.13249
813.754	5.00859
816.646	4.9323
819.539	4.88816
822.432	3.70434
825.324	2.8622
828.217	2.31779
831.11	1.80435
834.002	1.91303
836.895	1.47996
839.788	1.44043
842.681	0.865596
845.573	0.88196
848.466	0.78955
851.359	1.30605
854.251	0.689156
857.144	1.26971
860.037	1.3334
862.929	0.326396
865.822	0.804098
868.715	0.903063
871.607	0.161416
874.5	0.283183
877.393	0.496797
880.286	0.316926
883.178	0.648976
886.071	0.735209
888.964	0.407736
891.856	0.066725
894.749	0.235713
897.642	0.436681
900.534	0.28139
903.427	0.058475
906.32	0.687833
909.213	0.452176
912.105	0.070144
914.998	0.776954
917.891	0.066235
920.783	0.202564
923.676	0.400919
926.569	0.5344
929.462	0.366181
932.354	0.1294
935.247	0.468269
938.14	0.244598
941.032	0.802304
943.925	0.242203
946.818	0.048316
949.71	0.014649
952.603	0.615643
955.496	0.059537
958.388	0.751271
961.281	0.252991
964.174	0.301073
967.067	0.304711
969.959	0.989779
972.852	0.682153
975.745	0.624024
978.637	0.378833
981.53	0.915123
984.423	0.663206
987.315	1.05193
990.208	1.41796
993.101	1.66006
995.994	0.91488
998.886	1.39671
1001.78	1.1571
1004.67	0.272921
1007.56	0.433123
1010.46	0.526588
1013.35	0.187169
1016.24	0.062895
1019.13	0.397148
1022.03	0.094842
1024.92	0.724341
1027.81	0.425316
1030.71	0.900716
1033.6	0.471299
1036.49	0.448825
1039.38	0.060117
1042.28	1.27366
1045.17	0.320745
1048.06	0.312247
1050.95	0.412202
1053.85	0.023413
1056.74	0.356658
1059.63	0.511552
1062.53	0.844863
1065.42	0.120254
1068.31	0.651041
1071.2	0.346735
1074.1	0.823021
1076.99	0.899737
1079.88	0.375153
1082.77	0.440626
1085.67	0.714615
1088.56	0.082386
1091.45	0.611672
1094.35	0.326191
1097.24	0.587215
1100.13	0.163845
1103.02	0.057357
1105.92	0.092908
1108.81	0.584453
1111.7	1.02652
1114.59	0.738098
1117.49	0.426928
1120.38	0.024042
1123.27	0.410958
1126.16	0.696253
1129.06	1.01676
1131.95	0.779362
1134.84	0.016695
1137.74	0.372353
1140.63	0.847235
1143.52	0.737428
1146.41	0.707251
1149.31	0.281804
1152.2	0.390593
1155.09	0.723049
1157.98	0.345191
1160.88	0.038651
1163.77	0.445162
1166.66	0.214182
1169.56	0.118671
1172.45	0.147217
1175.34	1.06289
1178.23	1.00858
1181.13	0.189357
1184.02	0.387641
1186.91	0.707534
1189.8	0.309745
1192.7	0.740355
1195.59	0.438339
1198.48	0.737526
1201.38	0.248406
1204.27	0.188437
1207.16	1.08595
1210.05	0.721935
1212.95	0.15875
1215.84	0.06633
1218.73	0.587933
1221.62	0.204347
1224.52	0.407976
1227.41	0.001548
1230.3	0.428656
1233.19	0.304986
1236.09	0.641918
1238.98	0.276142
1241.87	0.315999
1244.77	0.533002
1247.66	0.687242
1250.55	0.314445
1253.44	0.524159
1256.34	0.134877
1259.23	0.566348
1262.12	0.075499
1265.01	0.460009
1267.91	0.342559
1270.8	0.565378
1273.69	0.797862
1276.59	0.467264
1279.48	0.786684
1282.37	0.859961
1285.26	0.619356
