Measurement: Raman, 532 nm, unoriented, Raman Data Processed
Mineral: Melanophlogite
Rruff sample: R060863
Ideal chemistry: C_2_H_17_O_5_Si_46_O_92_
Locality: 6 miles east of Mount Hamilton, Santa Clara County, California, USA
Source: Michael Scott
Description: Colorless cubes
Raman shift (cm-1)	intensity
155.271	0
158.164	228.588
161.057	828.838
163.949	1381.53
166.842	1715.88
169.735	1765.69
172.627	1649.92
175.52	1643.46
178.413	1707.22
181.305	1340.8
184.198	853.302
187.091	436.617
189.983	216.5
192.876	77.6865
195.769	163.139
198.662	168.292
201.554	153.234
204.447	129.263
207.34	205.902
210.232	467.046
213.125	659.94
216.018	1022.3
218.911	1412.21
221.803	1772.27
224.696	1958.9
227.589	2272.11
230.481	2309.11
233.374	2324.36
236.267	2300.34
239.159	2277.98
242.052	2484.76
244.945	2899.97
247.838	3560.53
250.73	4094.5
253.623	4637.49
256.516	5292.83
259.408	5845.12
262.301	6536.95
265.194	7053.27
268.086	7106.94
270.979	7190.39
273.872	6875.19
276.764	6565.59
279.657	6385.28
282.55	6469.58
285.442	6130.31
288.335	5808.04
291.228	5493.15
294.121	4938.83
297.013	4351.86
299.906	3718.54
302.799	3212.41
305.691	2525.85
308.584	1923.14
311.477	1247.76
314.37	902.299
317.262	487.456
320.155	240.366
323.048	48.8057
325.94	43.999
328.833	46.0527
331.726	138.737
334.618	356.81
337.511	474.849
340.404	590.47
343.296	678.357
346.189	897.736
349.082	1066.09
351.975	1284.63
354.867	1628.95
357.76	1985.37
360.653	2114.78
363.545	2413.64
366.438	2393.49
369.331	2358.67
372.224	2161.44
375.116	1787.96
378.009	1348.61
380.902	831.827
383.794	604.171
386.687	434.849
389.58	273.469
392.472	164.769
395.365	52.4853
398.258	24.1182
401.151	25.3906
404.043	18.7373
406.936	67.4033
409.829	70.1094
412.721	82.3281
415.614	38.5879
418.507	21.3701
421.399	46.5986
424.292	47.7734
427.185	245.398
430.077	176.788
432.97	332.089
435.863	470.617
438.755	488.455
441.648	496.71
444.541	417.317
447.434	374.665
450.326	315.668
453.219	333.597
456.112	363.756
459.004	452.235
461.897	452.407
464.79	515.06
467.683	576.164
470.575	684.759
473.468	737.129
476.361	826.873
479.253	805.262
482.146	864.668
485.039	841.999
487.931	681.572
490.824	556.028
493.717	421.295
496.61	338.954
499.502	284.22
502.395	201.148
505.288	281.521
508.18	202.662
511.073	78.4053
513.966	40.3164
516.858	100.491
519.751	28.7822
522.644	97.5361
525.536	41.6768
528.429	52.3887
531.322	40.7783
534.215	8.72754
537.107	11.9014
540	86.4473
542.893	88.1924
545.785	202.853
548.678	343.937
551.571	328.718
554.463	367.125
557.356	313.172
560.249	306.636
563.141	324.049
566.034	394.472
568.927	417.409
571.82	407.208
574.712	392.886
577.605	488.182
580.498	688.431
583.39	919.183
586.283	1412.41
589.176	1871.67
592.068	2492.94
594.961	2732.36
597.854	2499.93
600.747	2363.36
603.639	1862.63
606.532	1381.09
609.425	958.699
612.317	636.49
615.21	499.67
618.103	387.904
620.995	266.879
623.888	294.963
626.781	228.133
629.673	261.029
632.566	72.7803
635.459	173.714
638.352	117.066
641.244	55.3389
644.137	63.332
647.03	30.835
649.922	109.956
652.815	218.147
655.708	37.8506
658.601	126.58
661.493	46.4512
664.386	54.249
667.279	41.2754
670.171	48.2656
673.064	115.266
675.957	5.26465
678.849	63.8496
681.742	6.00879
684.635	22.4131
687.528	26.5781
690.42	85.0332
693.313	141.921
696.206	163.25
699.098	80.1621
701.991	57.6211
704.884	179.84
707.776	44.9473
710.669	67.7305
713.562	63.9258
716.455	227.195
719.347	259.631
722.24	335.332
725.133	562.736
728.025	620.75
730.918	425.539
733.811	421.93
736.703	331.619
739.596	142.363
742.489	1.01562
745.381	124.363
748.274	205.383
751.167	183.383
754.059	61.123
756.952	280.656
759.845	183.316
762.738	61.7734
765.63	194.066
768.523	271.41
771.416	395.547
774.308	370.766
777.201	378.328
780.094	563.5
782.986	790.436
785.879	1074.72
788.772	1307.34
791.665	1822.25
794.557	2587.44
797.45	3510.7
800.343	4343.2
803.235	4975.67
806.128	5642.19
809.021	6557.53
811.913	7198.22
814.806	5203.58
817.699	2320.78
820.592	1208.95
823.484	717.721
826.377	609.49
829.27	430.705
832.162	275.5
835.055	301.769
837.948	356.775
840.841	289.438
843.733	254.59
846.626	241.295
849.519	124.258
852.411	55.2695
855.304	95.6231
858.197	19.5078
861.089	5.74219
863.982	113.723
866.875	29.7949
869.767	9.17578
872.66	92.8965
875.553	189.805
878.446	218.053
881.338	291.31
884.231	281.486
887.124	346.469
890.016	325.514
892.909	358.656
895.802	376.533
898.694	294.303
901.587	235.553
904.48	198.535
907.372	203.115
910.265	240.086
913.158	206.057
916.051	187.103
918.943	116.244
921.836	131.84
924.729	180.19
927.621	287.262
930.514	259.502
933.407	378.356
936.299	249.791
939.192	240.713
942.085	479.082
944.977	467.525
947.87	501.859
950.763	691.451
953.656	928.104
956.548	1168.84
959.441	1410.69
962.334	1799.15
965.226	1983.27
968.119	1863.65
971.012	1651.66
973.904	1651.66
976.797	1670.42
979.69	1706.19
982.583	1911.93
985.475	1866.95
988.368	1778.52
991.261	1815.41
994.153	1600.78
997.046	1486.86
999.939	1329.1
1002.83	770.672
1005.72	408.809
1008.62	142.68
1011.51	60.9102
1014.4	67.3066
1017.29	40.5156
1020.19	20.4609
1023.08	37.373
1025.97	158.131
1028.87	17.4023
1031.76	119.984
1034.65	22.7012
1037.54	53.291
1040.44	76.6016
1043.33	50.1055
1046.22	44.9531
1049.12	122.994
1052.01	64.8555
1054.9	254.691
1057.79	362.072
1060.68	284.484
1063.58	316.773
1066.47	232.582
1069.36	188.527
1072.26	225.816
1075.15	176.789
1078.04	283.037
1080.93	242.022
1083.83	287.531
1086.72	476.057
1089.61	364.162
1092.51	311.387
1095.4	438.379
1098.29	551.615
1101.18	595.686
1104.08	598.42
1106.97	618.812
1109.86	545.172
1112.75	672.166
1115.65	582.246
1118.54	596.039
1121.43	414.623
1124.33	488.01
1127.22	341.088
1130.11	226.035
1133	195.592
1135.9	61.5605
1138.79	23.5801
1141.68	35.8516
1144.57	36.7109
1147.47	37.584
1150.36	16.3105
1153.25	186.578
1156.14	305.6
1159.04	186.728
1161.93	213.94
1164.82	68.5215
1167.71	19.2188
1170.61	102.285
1173.5	253.246
1176.39	428.42
1179.29	681.545
1182.18	710.725
1185.07	571.148
1187.96	511.346
1190.86	401.084
1193.75	298.887
1196.64	279.06
1199.54	214.982
1202.43	196.74
1205.32	160.019
1208.21	206.123
1211.11	250.754
1214	151.967
1216.89	25.7637
1219.78	126.65
1222.68	182.973
1225.57	254.357
1228.46	397.08
1231.36	486.688
1234.25	542.393
1237.14	646.398
1240.03	696.566
1242.92	506.416
1245.82	503.592
1248.71	460.121
1251.6	270.949
1254.5	275.023
1257.39	224.894
1260.28	80.7148
1263.17	120.963
1266.07	22.3574
1268.96	105.225
1271.85	54.586
1274.74	89.8212
1277.64	131.774
1280.53	92.1947
1283.42	99.4414
1286.32	71.5039
1289.21	1.22266
1292.1	44.6211
