Measurement: Raman, 532 nm, unoriented, Raman Data Processed
Mineral: Meliphanite
Rruff sample: R060786
Ideal chemistry: Ca_4_(Na,Ca)_4_Be_4_AlSi_7_O_24_(F,O)_4_
Locality: Brevig, Norway
Source: Michael Scott
Description: Greenish-yellow tabular crystal
Raman shift (cm-1)	intensity
153.825	0
156.718	17.1521
159.61	56.3994
162.503	100.666
165.396	216.85
168.288	169.924
171.181	231.815
174.074	198.386
176.966	131.109
179.859	203.152
182.752	221.835
185.644	198.649
188.537	111.317
191.43	249.721
194.323	199.183
197.215	276.458
200.108	272.012
203.001	268.948
205.893	336.925
208.786	371.463
211.679	275.018
214.571	162.514
217.464	85.2241
220.357	66.6416
223.25	8.48291
226.142	32.5601
229.035	82.2886
231.928	74.7256
234.82	82.9707
237.713	99.2202
240.606	183.321
243.498	256.135
246.391	335.746
249.284	437.868
252.177	532.611
255.069	503.097
257.962	540.041
260.855	449.374
263.747	457.248
266.64	350.002
269.533	335.409
272.425	289.336
275.318	226.023
278.211	207.336
281.103	143.6
283.996	182.888
286.889	96.5005
289.782	113.623
292.674	41.2422
295.567	51.7559
298.46	13.335
301.352	33.8018
304.245	22.8794
307.138	81.1479
310.031	19.4893
312.923	23.6602
315.816	19.2275
318.709	7.77295
321.601	40.9287
324.494	116.366
327.387	99.9097
330.279	212.298
333.172	306.613
336.065	455.487
338.957	625.688
341.85	1016.05
344.743	1397.15
347.635	1812.7
350.528	1936.89
353.421	1662.89
356.314	1131.57
359.206	706.392
362.099	438.893
364.992	377.163
367.884	376.642
370.777	561.526
373.67	792.212
376.562	847.529
379.455	826.822
382.348	689.621
385.241	499.539
388.133	311.131
391.026	216.846
393.919	271.358
396.811	446.734
399.704	861.014
402.597	1315.82
405.49	1984.09
408.382	2379.25
411.275	2471.93
414.168	1999.22
417.06	1428.63
419.953	941.191
422.846	684.11
425.738	471.454
428.631	295.152
431.524	209.965
434.416	54.5684
437.309	89.354
440.202	92.1977
443.094	12.4956
445.987	156.969
448.88	314.209
451.773	515.204
454.665	702.141
457.558	678.794
460.451	698.684
463.343	834.553
466.236	1180.27
469.129	1524.76
472.022	1614
474.914	1430.42
477.807	1276.3
480.7	1182.38
483.592	1264.26
486.485	1339.46
489.378	1271.74
492.27	1000.73
495.163	647.093
498.056	323.543
500.949	243.217
503.841	184.027
506.734	228.242
509.627	186.996
512.519	256.033
515.412	447.655
518.305	597.687
521.197	826.164
524.09	1042.06
526.983	1202.74
529.875	1375.91
532.768	1376.35
535.661	1303.2
538.554	1310.39
541.446	1120.42
544.339	966.466
547.232	833.393
550.124	713.941
553.017	580.279
555.91	478.659
558.802	330.411
561.695	286.15
564.588	219.343
567.481	80.7148
570.373	37.7393
573.266	15.7969
576.159	5.98438
579.051	39.835
581.944	50.3818
584.837	43.0049
587.729	55.4971
590.622	27.123
593.515	68.5586
596.408	84.4307
599.3	107.18
602.193	178.301
605.086	262.763
607.978	266.681
610.871	463.345
613.764	551.463
616.656	766.334
619.549	1207.91
622.442	1659.34
625.335	1789.11
628.227	1480.25
631.12	796.209
634.013	452.031
636.905	198.31
639.798	42.7012
642.691	79.1152
645.583	103.827
648.476	122.151
651.369	411.718
654.261	728.627
657.154	983.664
660.047	1097.08
662.94	1242.18
665.832	1331.26
668.725	1441.99
671.618	1627.82
674.51	1581.65
677.403	1497.63
680.296	1369.39
683.188	1348.13
686.081	1417.47
688.974	1269.52
691.866	1093.41
694.759	828.032
697.652	755.837
700.545	528.935
703.437	342.309
706.33	290.809
709.223	195.722
712.115	137.773
715.008	144.77
717.901	282.847
720.793	146.473
723.686	243.166
726.579	290.768
729.472	483.071
732.364	559.285
735.257	801.985
738.15	1110.5
741.042	1465.88
743.935	1727.14
746.828	1882.86
749.721	1948.77
752.613	2052.03
755.506	2172.32
758.399	2211.4
761.291	2224.27
764.184	2283.46
767.077	2299.36
769.969	2318.13
772.862	2209.32
775.755	1832.12
778.648	1709.91
781.54	1434.28
784.433	1222.52
787.326	1034.82
790.218	859.459
793.111	712.264
796.004	577.568
798.896	414.279
801.789	335.621
804.682	194.685
807.574	108.685
810.467	134.145
813.36	30.3652
816.253	23.1709
819.145	43.6143
822.038	15.3154
824.931	6.71191
827.823	5.64746
830.716	11.7979
833.609	16.4521
836.501	39.5625
839.394	16.2441
842.287	1.90039
845.179	80.1426
848.072	80.5791
850.965	152.338
853.858	128.986
856.75	180.761
859.643	255.565
862.536	332.526
865.428	340.327
868.321	333.865
871.214	381.651
874.106	263.272
876.999	291.424
879.892	249.274
882.784	205.184
885.677	171.545
888.57	263.234
891.463	220.715
894.355	330.468
897.248	224.914
900.141	36.4092
903.033	2.16504
905.926	4.94824
908.819	92.2471
911.712	39.668
914.604	9.45996
917.497	4.82715
920.39	60.2725
923.282	120.182
926.175	278.604
929.068	178.539
931.96	225.989
934.853	186.33
937.746	149.978
940.639	9.88672
943.531	46.6641
946.424	42.8652
949.317	29.7793
952.209	0.181641
955.102	78.5059
957.995	34.0117
960.887	186.283
963.78	212.275
966.673	214.76
969.566	85.4531
972.458	65.5644
975.351	70.2715
978.244	155.699
981.136	49.4023
984.029	181.307
986.922	192.336
989.814	236.758
992.707	436.133
995.6	408.426
998.492	674.131
1001.38	879.818
1004.28	1284.55
1007.17	1833.03
1010.06	2384.56
1012.96	3087.97
1015.85	3505.6
1018.74	4027
1021.63	4546.08
1024.53	5073.01
1027.42	5678.6
1030.31	6179.37
1033.2	6728.72
1036.1	7117.58
1038.99	7511.81
1041.88	7626.63
1044.78	7372.47
1047.67	7112.22
1050.56	6743.49
1053.45	6308.32
1056.35	5711.82
1059.24	5185.3
1062.13	4645.72
1065.03	4233.44
1067.92	3637.27
1070.81	3264.51
1073.7	2951
1076.6	2469.61
1079.49	2087.39
1082.38	1737.11
1085.27	1454.04
1088.17	1260.61
1091.06	915.236
1093.95	784.537
1096.84	552.061
1099.74	333.859
1102.63	166.256
1105.52	135.678
1108.41	41.5352
1111.31	79.8398
1114.2	132.678
1117.09	134.59
1119.99	123.533
1122.88	16.7852
1125.77	5.88867
1128.66	197.596
1131.56	400.06
1134.45	615.096
1137.34	737.982
1140.23	926.75
1143.13	1048.4
1146.02	1312.89
1148.91	1404.22
1151.81	1743.84
1154.7	1911.93
1157.59	2172.27
1160.48	2335.03
1163.38	2376.81
1166.27	2579.32
1169.16	2615.47
1172.05	2661.97
1174.95	2662.49
1177.84	2524.49
1180.73	2372.45
1183.62	2319.82
1186.52	2235.41
1189.41	2094.64
1192.3	1905.52
1195.2	1766.92
1198.09	1702.53
1200.98	1490.73
1203.87	1402.95
1206.77	1357.02
1209.66	1206.69
1212.55	1163.48
1215.44	965.131
1218.34	775.383
1221.23	684.627
1224.12	585.062
1227.02	512.162
1229.91	494.906
1232.8	344.955
1235.69	439.344
1238.59	266.408
1241.48	251.117
1244.37	138.297
1247.26	260.352
1250.16	168.947
1253.05	42.5781
1255.94	86.3359
1258.84	16.4043
1261.73	28.5684
1264.62	75.5039
1267.51	73.0684
1270.41	144.369
1273.3	282.41
1276.19	438.457
1279.08	280.389
1281.98	359.512
1284.87	208.887
1287.76	242.885
1290.65	85.0566
1293.55	102.16
1296.44	54.1855
1299.33	42.6328
