Measurement: Raman, 532 nm, unoriented, Raman Data Processed
Mineral: Mellite
Rruff sample: R070574
Ideal chemistry: Al_2_C_6_(COO)_6_16H_2_O
Locality: Tuscany, Italy
Source: James Shigley
Description: Pale yellow prismatic crystal fragment
Measured chemistry: (Al_1.95_Fe^3+^_0.05_)_Σ=2_C_6_(COO)_6_·16H_2_O; CO_2_ and H_2_O from stoichiometry
Raman shift (cm-1)	intensity
139.903	0
143.278	433.838
146.653	1758.77
150.028	3774.22
153.402	5209.4
156.777	5063.91
160.152	5016.17
163.527	6167.15
166.902	6336.92
170.276	4542.01
173.651	3438.75
177.026	3940.16
180.401	5436.03
183.776	5013.08
187.15	2443.79
190.525	1104.1
193.9	997.059
197.275	1367.2
200.65	1756.07
204.025	1928.95
207.399	1985.04
210.774	1345.64
214.149	378.971
217.524	135.082
220.899	322.838
224.274	153.615
227.648	20.1152
231.023	368.69
234.398	1120.75
237.773	1789.5
241.148	2612.27
244.522	3215.64
247.897	3036.55
251.272	2309.6
254.647	1613.96
258.022	1442.08
261.397	1523.52
264.771	1645.45
268.146	1479.08
271.521	1463.29
274.896	1307.77
278.271	1157.44
281.645	844.852
285.02	632.393
288.395	337.5
291.77	137.832
295.145	56.3691
298.519	61.1582
301.894	14.5938
305.269	280.096
308.644	631.369
312.019	1036.48
315.394	1357.79
318.768	1610.23
322.143	2272.04
325.518	3236.83
328.893	3833.47
332.268	3087.6
335.642	2281.03
339.017	1983.66
342.392	1453.27
345.767	841.037
349.142	799.109
352.517	904.965
355.891	1022.89
359.266	1105.63
362.641	1028.85
366.016	977.812
369.391	862.467
372.765	378.152
376.14	138.935
379.515	165.799
382.89	408.824
386.265	295.674
389.64	263.975
393.014	231.986
396.389	152.293
399.764	307.023
403.139	207.701
406.514	22.9688
409.889	7.39453
413.263	115.295
416.638	34.4629
420.013	78.4102
423.388	26.0332
426.763	31.3906
430.137	2.85156
433.512	2.81836
436.887	121.777
440.262	287.144
443.637	253.201
447.012	369.488
450.386	218.791
453.761	168.211
457.136	219.955
460.511	308.508
463.886	363.965
467.26	408.965
470.635	356.734
474.01	207.852
477.385	337.588
480.76	316.01
484.135	185.607
487.509	292.785
490.884	223.258
494.259	183.072
497.634	156.252
501.009	237.664
504.383	282.857
507.758	195.85
511.133	230.062
514.508	317.432
517.883	275.455
521.258	287.65
524.632	323.49
528.007	317.772
531.382	432.853
534.757	394.857
538.132	404.938
541.506	497.654
544.881	276.562
548.256	283.961
551.631	335.283
555.006	278.654
558.38	112.912
561.755	36.0547
565.13	8.23047
568.505	88.3926
571.88	150.67
575.255	189.228
578.629	142.102
582.004	93.5469
585.379	204.037
588.754	199.586
592.129	196.07
595.504	249.441
598.878	128.873
602.253	138.69
605.628	221.484
609.003	92.3535
612.378	34.6543
615.752	6.89648
619.127	86.0742
622.502	13.9844
625.877	78.1914
629.252	179.418
632.626	296.674
636.001	114.074
639.376	242.133
642.751	375.641
646.126	361.894
649.5	154.861
652.875	262.887
656.25	362.965
659.625	411.279
663	191.523
666.375	109.984
669.75	232.881
673.124	348.787
676.499	165.922
679.874	205.328
683.249	40.3496
686.624	51.748
689.998	187.637
693.373	173.328
696.748	186.856
700.123	162.06
703.498	171.619
706.872	19.9473
710.247	54.8555
713.622	30.3828
716.997	295.098
720.372	267.744
723.747	117.564
727.121	138.41
730.496	166.531
733.871	126.17
737.246	158.109
740.621	190.943
743.995	69.5098
747.37	276.672
750.745	378.113
754.12	219.762
757.495	112.131
760.87	357.316
764.244	620.848
767.619	761.16
770.994	741.965
774.369	928.281
777.744	883.025
781.119	739.666
784.493	404.801
787.868	372.488
791.243	351.582
794.618	534.521
797.993	689.322
801.367	882.424
804.742	1112.62
808.117	1409.02
811.492	1435.98
814.867	1241.01
818.241	1091.98
821.616	769.158
824.991	611.939
828.366	635.424
831.741	435.002
835.116	555.088
838.49	395.68
841.865	386.414
845.24	273.107
848.615	287.107
851.99	448.197
855.365	601.949
858.739	409.176
862.114	162.934
865.489	50.4512
868.864	122.191
872.239	298.572
875.613	332.607
878.988	178.19
882.363	68.1562
885.738	73.8477
889.113	103.103
892.487	21.2031
895.862	16.4434
899.237	10.1641
902.612	65.2656
905.987	22.5566
909.362	25.7598
912.736	184.971
916.111	178.744
919.486	203.125
922.861	232.103
926.236	253.17
929.611	155.957
932.985	113.644
936.36	145.713
939.735	86.5898
943.11	128.613
946.485	288.852
949.859	221.701
953.234	272.881
956.609	309.027
959.984	304.152
963.359	179.768
966.734	28.6211
970.108	27.9336
973.483	67.7617
976.858	140.791
980.233	259.768
983.607	216.68
986.982	100.814
990.357	169.606
993.732	239.236
997.107	160.201
1000.48	8.38672
1003.86	226.252
1007.23	260.793
1010.61	260.373
1013.98	407.977
1017.36	127.756
1020.73	135.744
1024.11	145.768
1027.48	189.295
1030.86	31.1875
1034.23	67.3711
1037.61	1.3457
1040.98	247.461
1044.35	47.3281
1047.73	39
1051.1	59.832
1054.48	19.2773
1057.85	158.094
1061.23	274.062
1064.6	73.4688
1067.98	21.3633
1071.35	369.562
1074.73	286.668
1078.1	279.992
1081.48	241.543
1084.85	100.172
1088.23	215.789
1091.6	273.938
1094.98	494.82
1098.35	373.316
1101.73	368.57
1105.1	299.676
1108.48	243.519
1111.85	61.7031
1115.22	209.644
1118.6	289.918
1121.97	224.844
1125.35	227.559
1128.72	282.902
1132.1	269.664
1135.47	302.606
1138.85	298.219
1142.22	371.516
1145.6	349.824
1148.97	463.883
1152.35	369.977
1155.72	224.684
1159.1	228.777
1162.47	312.144
1165.85	197.641
1169.22	232.266
1172.6	242.566
1175.97	246.031
1179.35	303.879
1182.72	101.91
1186.1	250.016
1189.47	175.711
1192.85	75.6367
1196.22	234.492
1199.6	317.043
1202.97	12.9375
1206.35	119.363
1209.72	188.082
1213.1	276.562
1216.47	551.285
1219.85	1113.72
1223.22	2082.5
1226.59	3982.6
1229.97	4373.03
1233.34	2163.4
1236.72	755.039
1240.09	414.398
1243.47	88.0273
1246.84	25.4727
1250.22	12.1328
1253.59	56.5938
1256.97	125.516
1260.34	36.793
1263.72	108.961
1267.09	223.828
1270.47	244.531
1273.84	175.82
1277.22	42.1719
1280.59	108.762
1283.97	274.531
1287.34	211.699
1290.72	95.4375
1294.09	166.707
1297.47	1.27734
