Measurement: Raman, 532 nm, unoriented, Raman Data Processed
Mineral: Mendozite
Rruff sample: R070315
Ideal chemistry: NaAl(S^6+^O_4_)_2_11H_2_O
Locality: Gold Bottom mine, Inyo County, California, USA
Source: James Shigley
Description: Colorless acicular to fibrous crystals associated with gypsum
Raman shift (cm-1)	intensity
170.393	0
173.286	38.9009
176.178	4.38281
179.071	58.3413
181.964	17.2363
184.856	26.585
187.749	106.986
190.642	171.341
193.535	115.688
196.427	154.217
199.32	133.688
202.213	111.371
205.105	150.458
207.998	191.881
210.891	184.617
213.783	222.866
216.676	190.756
219.569	202.791
222.462	128.435
225.354	225.219
228.247	231.279
231.14	167.502
234.032	204.026
236.925	162.094
239.818	171.055
242.71	137.376
245.603	106.879
248.496	70.9141
251.388	74.9443
254.281	100.228
257.174	105.874
260.067	63.206
262.959	62.2412
265.852	54.9473
268.745	53.916
271.637	28.3086
274.53	38.3105
277.423	26.2236
280.315	8.54102
283.208	23.916
286.101	7.58984
288.994	34.7822
291.886	107.339
294.779	93.5215
297.672	30.6641
300.564	32.168
303.457	131.45
306.35	96.8682
309.243	73.6953
312.135	160.382
315.028	122.661
317.921	70.0742
320.813	99.9971
323.706	59.9238
326.599	92.3135
329.491	85.0898
332.384	64.6641
335.277	67.6924
338.17	108.161
341.062	88.0625
343.955	52.1494
346.848	18.2998
349.74	2.18652
352.633	45.3389
355.526	84.3096
358.418	3.70606
361.311	11.6768
364.204	62.4248
367.097	57.9766
369.989	77.7598
372.882	34.5859
375.775	8.67383
378.667	22.9639
381.56	3.61816
384.453	26.0693
387.346	61.5898
390.238	40.0049
393.131	102.558
396.024	28.2871
398.916	39.6602
401.809	135.697
404.702	141.19
407.594	140.132
410.487	183.503
413.38	206.824
416.272	298.233
419.165	336.366
422.058	328.097
424.951	346.062
427.843	304.123
430.736	352.675
433.629	216.233
436.521	287.778
439.414	274.081
442.307	254.041
445.2	270.449
448.092	279.46
450.985	336.775
453.878	327.13
456.77	411.623
459.663	378.732
462.556	409.648
465.448	396.127
468.341	448.69
471.234	372.675
474.127	374.107
477.019	284.351
479.912	300.611
482.805	325.992
485.697	194.942
488.59	214.74
491.483	139.355
494.375	76.5898
497.268	127.631
500.161	49.29
503.053	33.4346
505.946	43.9033
508.839	70.541
511.732	90.0615
514.624	112.341
517.517	11.9854
520.41	7.9043
523.302	126.534
526.195	34.709
529.088	76.793
531.981	54.6621
534.873	119.513
537.766	92.7129
540.659	74.2881
543.551	61.5195
546.444	11.2305
549.337	27.8369
552.229	16.6338
555.122	3.81445
558.015	22.2881
560.908	96.3721
563.8	79.1826
566.693	78.166
569.586	103.29
572.478	41.7754
575.371	12.9766
578.264	43.4834
581.156	98.1426
584.049	131.117
586.942	111.051
589.835	72.4238
592.727	116.094
595.62	140.818
598.513	210.211
601.405	240.92
604.298	297.852
607.191	333.92
610.083	362.291
612.976	473.881
615.869	386.67
618.762	497.568
621.654	372.246
624.547	349.328
627.44	301.586
630.332	374.338
633.225	371.981
636.118	297.184
639.01	301.703
641.903	270.006
644.796	200.463
647.689	277.477
650.581	231.348
653.474	251.031
656.367	209.69
659.259	219.477
662.152	170.824
665.045	210.402
667.938	185.502
670.83	146.397
673.723	143.891
676.616	43.3359
679.508	119.33
682.401	95.2695
685.294	72.8203
688.186	3.57422
691.079	20.0605
693.972	92.0684
696.865	14.3535
699.757	13.9824
702.65	3.63672
705.543	6.38867
708.435	130.981
711.328	10.3379
714.221	116.506
717.113	6.16602
720.006	33.543
722.899	22.4316
725.792	126.875
728.684	41.3984
731.577	23.8594
734.47	115.807
737.362	71.0176
740.255	57.4492
743.148	88.2852
746.04	49.5137
748.933	8.55078
751.826	74.1133
754.719	64.0312
757.611	13.041
760.504	42
763.397	34.3398
766.289	50.8066
769.182	101.869
772.075	53.0664
774.967	36.6934
777.86	67.8945
780.753	116.588
783.646	33.2949
786.538	38.6465
789.431	72.4981
792.324	77.9434
795.216	7.5957
798.109	106.982
801.002	45.7383
803.894	53.4219
806.787	136.147
809.68	91.0156
812.573	74.8086
815.465	54.7871
818.358	179.244
821.251	49.6914
824.143	7.60352
827.036	28.0703
829.929	91.5859
832.822	42.5938
835.714	17.8965
838.607	92.2481
841.5	3.26172
844.392	17.9023
847.285	168.551
850.178	86.6719
853.07	109.738
855.963	81.1641
858.856	161.658
861.749	69.8906
864.641	48.7793
867.534	214.008
870.427	23.4805
873.319	60.002
876.212	22.3164
879.105	67.3125
881.997	29.8516
884.89	46.4375
887.783	58.373
890.676	14.6465
893.568	6.1875
896.461	2.77539
899.354	26.6426
902.246	37.0625
905.139	48.5898
908.032	25.5039
910.924	35.4688
913.817	10.9297
916.71	67.5684
919.602	37.5293
922.495	103.016
925.388	95.0508
928.281	18.7988
931.173	112.281
934.066	94.3223
936.959	52.6387
939.851	21.1465
942.744	40.3789
945.637	240.709
948.529	71.0644
951.422	150.621
954.315	204.471
957.208	378.125
960.1	266.018
962.993	557.143
965.886	566.533
968.778	855.244
971.671	1025.4
974.564	1145.56
977.457	1101.36
980.349	944.67
983.242	1142.94
986.135	1495.01
989.027	2176.77
991.92	2567.11
994.813	2619.9
997.705	2112.91
1000.6	1398.62
1003.49	976.221
1006.38	587.188
1009.28	429.565
1012.17	268.654
1015.06	208.596
1017.95	227.812
1020.85	104.559
1023.74	206.66
1026.63	94.5312
1029.53	4.7207
1032.42	5.47656
1035.31	27.3594
1038.2	43.8359
1041.1	50.3301
1043.99	23.6621
1046.88	51.002
1049.77	58.8379
1052.67	14.4414
1055.56	44.3242
1058.45	30.8691
1061.35	105.088
1064.24	96.334
1067.13	112.947
1070.02	48.8984
1072.92	140.111
1075.81	136.752
1078.7	199.703
1081.59	200.963
1084.49	106.596
1087.38	137.986
1090.27	106.537
1093.16	3.62891
1096.06	131.053
1098.95	171.859
1101.84	68.2676
1104.73	80.9707
1107.63	83.7481
1110.52	91.3984
1113.41	6.93359
1116.31	98.8731
1119.2	110.777
1122.09	158.131
1124.98	195.137
1127.88	142.584
1130.77	180.357
1133.66	249.549
1136.56	198.471
1139.45	287.828
1142.34	285.295
1145.23	319.31
1148.13	274.174
1151.02	213.191
1153.91	219.981
1156.8	151.728
1159.7	183.076
1162.59	68.4062
1165.48	21.7598
1168.38	81.7793
1171.27	23.002
1174.16	144.606
1177.05	21.6348
1179.95	49.5547
1182.84	146.098
1185.73	63.4141
1188.62	81.1074
1191.52	91.9688
1194.41	68.6758
1197.3	132.832
1200.19	89.2891
1203.09	64.8008
1205.98	86.3398
1208.87	64.8555
1211.77	143.633
1214.66	9.9043
1217.55	129.779
1220.44	58.4648
1223.34	97.8086
1226.23	76.7539
1229.12	146.369
1232.01	176.129
1234.91	54.6992
1237.8	146.785
1240.69	135.19
1243.59	159.484
1246.48	49.3535
1249.37	150.16
1252.26	89.5391
1255.16	214.74
1258.05	72.209
1260.94	192.967
1263.83	88.9844
1266.73	100.592
1269.62	76.5508
1272.51	106.832
1275.4	221.508
1278.3	89.7949
1281.19	82.75
1284.08	159.576
1286.98	14.5977
1289.87	55.127
1292.76	48.4824
1295.65	22.4805
1298.55	0
