Measurement: Raman, 785 nm, unoriented, Raman Data Processed
Mineral: Mendozite
Rruff sample: R070315
Ideal chemistry: NaAl(S^6+^O_4_)_2_11H_2_O
Locality: Gold Bottom mine, Inyo County, California, USA
Source: James Shigley
Description: Colorless acicular to fibrous crystals associated with gypsum
Raman shift (cm-1)	intensity
173.088	0
175.981	11.0601
178.873	22.4265
181.766	2.60767
184.659	32.363
187.552	37.0335
190.444	50.2637
193.337	101.246
196.23	129.128
199.122	147.502
202.015	120.644
204.908	109.536
207.8	113.645
210.693	87.3623
213.586	127.495
216.478	155.487
219.371	149.145
222.264	179.719
225.157	131.094
228.049	150.245
230.942	80.3144
233.835	132.234
236.727	76.3203
239.62	77.7236
242.513	63.8635
245.405	93.5557
248.298	56.0464
251.191	38.4805
254.084	26.5452
256.976	47.9868
259.869	45.6472
262.762	38.1282
265.654	37.625
268.547	0.416748
271.44	16.4033
274.332	23.4954
277.225	10.4585
280.118	28.8606
283.011	46.0361
285.903	50.2085
288.796	37.3916
291.689	63.2527
294.581	105.016
297.474	55.1519
300.367	86.8784
303.26	148.962
306.152	123.058
309.045	154.422
311.938	165.102
314.83	140.528
317.723	137.006
320.616	160.574
323.508	102.532
326.401	43.719
329.294	79.074
332.187	67.6238
335.079	109.83
337.972	27.0125
340.865	43.5081
343.757	46.573
346.65	44.5645
349.543	32.1043
352.435	13.3821
355.328	28.5437
358.221	79.8047
361.113	40.5857
364.006	57.1182
366.899	28.658
369.792	7.34668
372.684	50.4678
375.577	33.3227
378.47	20.3896
381.362	37.687
384.255	29.4421
387.148	3.09058
390.041	19.6221
392.933	8.37256
395.826	28.3835
398.719	30.6113
401.611	56.9724
404.504	106.907
407.397	116.563
410.289	145.387
413.182	160.408
416.075	179.687
418.967	271.356
421.86	297.333
424.753	264.762
427.646	275.809
430.538	238.593
433.431	254.462
436.324	244.848
439.216	222.797
442.109	254.947
445.002	314.81
447.894	295.29
450.787	337.163
453.68	377.771
456.573	407.173
459.465	451.96
462.358	421.6
465.251	430.211
468.143	409.477
471.036	405.218
473.929	357.498
476.822	318.583
479.714	261.102
482.607	233.08
485.5	141.975
488.392	156.521
491.285	113.76
494.178	68.3359
497.07	51.467
499.963	27.042
502.856	6.59448
505.748	16.1045
508.641	39.4824
511.534	13.2407
514.427	14.6331
517.319	63.4268
520.212	12.8286
523.105	20.5632
525.997	56.2336
528.89	73.7744
531.783	60.7178
534.676	57.7371
537.568	32.3098
540.461	15.2129
543.354	6.94507
546.246	12.8411
549.139	17.6697
552.032	11.251
554.924	14.8059
557.817	10.4504
560.71	13.0559
563.602	18.7634
566.495	12.8323
569.388	41.1526
572.281	57.8914
575.173	13.8606
578.066	105.528
580.959	66.4097
583.851	116.288
586.744	138.839
589.637	178.219
592.529	149.602
595.422	210.675
598.315	247.461
601.208	288.128
604.1	321.849
606.993	306.691
609.886	307.087
612.778	303.275
615.671	325.761
618.564	307.17
621.457	322.174
624.349	305.432
627.242	222.847
630.135	222.467
633.027	134.637
635.92	146.545
638.813	133.389
641.705	46.5803
644.598	110.151
647.491	58.8169
650.384	33.687
653.276	50.6133
656.169	49.2315
659.062	32.2019
661.954	32.0269
664.847	40.7315
667.74	3.86865
670.632	13.9856
673.525	45.7378
676.418	4.79688
679.311	14.5635
682.203	8.76343
685.096	33.313
687.989	17.7703
690.881	14.5046
693.774	3.2168
696.667	19.4998
699.559	15.3977
702.452	12.8201
705.345	51.8684
708.237	19.3308
711.13	14.5735
714.023	0.233643
716.916	24.1504
719.808	50.8184
722.701	30.2991
725.594	37.679
728.486	39.5796
731.379	29.4021
734.272	36.8696
737.164	66.7776
740.057	24.4797
742.95	49.8897
745.843	37.3892
748.735	46.0112
751.628	31.7112
754.521	38.9136
757.413	0.141113
760.306	11.1201
763.199	32.0535
766.091	12.6204
768.984	31.1209
771.877	28.2727
774.77	21.4185
777.662	41.1982
780.555	15.3943
783.448	28.9539
786.34	49.9363
789.233	17.4553
792.126	24.8909
795.019	9.88721
797.911	14.3257
800.804	14.7656
803.697	28.1301
806.589	18.7385
809.482	28.1016
812.375	4.19775
815.267	54.8181
818.16	69.9688
821.053	10.8467
823.946	14.4895
826.838	63.782
829.731	18.4966
832.624	22.074
835.516	44.6694
838.409	22.9619
841.302	18.2044
844.194	13.1155
847.087	56.3323
849.98	46.6084
852.872	25.1758
855.765	57.1941
858.658	34.9321
861.551	19.9387
864.443	49.4094
867.336	28.876
870.229	39.1868
873.121	38.1868
876.014	18.6875
878.907	29.6184
881.799	7.36011
884.692	0.733398
887.585	18.398
890.478	10.2473
893.37	23.7927
896.263	8.60547
899.156	42.1814
902.048	2.57812
904.941	32.7212
907.834	13.3835
910.726	7.25
913.619	17.78
916.512	4.23315
919.405	15.6235
922.297	32.595
925.19	0.359863
928.083	9.21948
930.975	27.5095
933.868	18.5544
936.761	45.7734
939.654	32.1558
942.546	48.1995
945.439	16.5779
948.332	112.054
951.224	133.109
954.117	195.897
957.01	209.141
959.902	309.003
962.795	407.093
965.688	547.592
968.581	731.315
971.473	962.982
974.366	1136.75
977.259	1108.44
980.151	986.625
983.044	1145.67
985.937	1497.06
988.829	2158.95
991.722	2488.19
994.615	2654.19
997.508	2297.6
1000.4	1448.79
1003.29	867.046
1006.19	522.519
1009.08	375.36
1011.97	185.699
1014.86	86.3779
1017.76	63.6453
1020.65	32.9338
1023.54	10.4937
1026.43	8.76782
1029.33	33.4495
1032.22	21.8867
1035.11	2.18603
1038.01	30.2808
1040.9	1.8894
1043.79	12.2393
1046.68	38.6848
1049.58	32.9822
1052.47	55.3384
1055.36	54.2671
1058.25	95.384
1061.15	50.3035
1064.04	74.1755
1066.93	75.8809
1069.83	78.0317
1072.72	121.726
1075.61	46.6091
1078.5	91.438
1081.4	139.262
1084.29	96.991
1087.18	64.9287
1090.07	68.2407
1092.97	62.8445
1095.86	48.9321
1098.75	47.0366
1101.64	46.8657
1104.54	16.8652
1107.43	52.1533
1110.32	45.3042
1113.21	61.4102
1116.11	50.0527
1119	67.2773
1121.89	85.0837
1124.79	86.512
1127.68	56.6804
1130.57	61.4727
1133.46	134.549
1136.36	112.811
1139.25	138.804
1142.14	152.316
1145.04	144.27
1147.93	91.3894
1150.82	131.33
1153.71	74.9214
1156.61	104.32
1159.5	41.1497
1162.39	45.3125
1165.28	87.6133
1168.18	3.22705
1171.07	6.52051
1173.96	8.49097
1176.86	18.4724
1179.75	13.6623
1182.64	4.00269
1185.53	6.2063
1188.43	3.77808
1191.32	32.3799
1194.21	42.6145
1197.1	24.5852
1200	39.5486
1202.89	36.8982
1205.78	35.7291
1208.67	8.51404
1211.57	46.2602
1214.46	73.7202
1217.35	28.1993
1220.24	9.62085
1223.14	37.1168
1226.03	31.0317
1228.92	62.3977
1231.82	32.3435
