Measurement: Raman, 532 nm, unoriented, Raman Data Processed
Mineral: Meneghinite
Rruff sample: R070093
Ideal chemistry: Pb^2+^_13_Cu^1+^Sb^3+^_7_S^2-^_24_
Locality: Kalkar Quarry, Santa Cruz, Santa Cruz County, California, USA
Source: James Shigley
Description: Elongated silver-gray metallic crystals embedded in quartz and associated with calcite
Measured chemistry: (Pb_12.20_Sn_0.80_)_Σ=13_Cu_1.00_(Sb_6.97_As_0.03_)_Σ=7_S_24.00_
Raman shift (cm-1)	intensity
147.77	0
151.145	23.061
154.52	4.72693
157.894	24.1791
161.269	9.54785
164.644	40.018
168.019	34.9279
171.394	65.0015
174.769	59.7022
178.143	83.3835
181.518	91.1266
184.893	110.499
188.268	143.827
191.643	159.704
195.018	185.075
198.392	209.929
201.767	243.619
205.142	280.543
208.517	267.206
211.892	248.922
215.266	226.673
218.641	217.925
222.016	199.073
225.391	200.137
228.766	195.742
232.141	235.712
235.515	224.449
238.89	270.228
242.265	266.186
245.64	277.374
249.015	268.868
252.389	267.049
255.764	287.064
259.139	259.9
262.514	244.201
265.889	243.203
269.264	203.537
272.638	154.209
276.013	133.883
279.388	64.7278
282.763	53.9054
286.137	8.74713
289.512	13.9254
292.887	9.23456
296.262	4.85879
299.637	13.2018
303.012	5.05731
306.386	53.0932
309.761	70.0345
313.136	104.682
316.511	106.57
319.886	134.901
323.26	142.062
326.635	169.204
330.01	170.406
333.385	195.738
336.76	181.12
340.135	152.633
343.509	89.2103
346.884	45.2789
350.259	26.4013
353.634	21.7336
357.009	4.16321
360.384	5.54068
363.758	11.1453
367.133	4.37152
370.508	9.21365
373.883	15.0265
377.258	9.53497
380.632	6.93741
384.007	10.0858
387.382	16.0201
390.757	22.875
394.132	28.5878
397.507	31.1817
400.881	25.3375
404.256	29.2895
407.631	31.8873
411.006	27.1803
414.381	38.1282
417.755	31.768
421.13	20.5275
424.505	16.2007
427.88	14.782
431.255	19.7738
434.63	13.5548
438.004	23.0319
441.379	21.9982
444.754	22.2657
448.129	15.3409
451.504	3.00401
454.878	1.8889
458.253	23.987
461.628	12.7152
465.003	15.8044
468.378	16.8789
471.752	3.65068
475.127	22.0208
478.502	2.40408
481.877	2.77977
485.252	4.77579
488.627	8.14705
492.001	21.1682
495.376	21.9637
498.751	23.6326
502.126	30.5086
505.501	2.57857
508.875	18.2513
512.25	9.87784
515.625	11.5381
519	22.7284
522.375	10.8732
525.75	13.864
529.124	23.3746
532.499	0.721161
535.874	12.3488
539.249	12.7364
542.624	3.10368
545.999	8.31081
549.373	3.44508
552.748	23.4527
556.123	17.7009
559.498	9.50278
562.873	29.2916
566.247	29.1153
569.622	19.9818
572.997	6.69557
576.372	29.0388
579.747	3.78632
583.121	15.0822
586.496	20.1648
589.871	21.6753
593.246	13.2456
596.621	0.756027
599.996	17.2408
603.37	13.7113
606.745	9.1378
610.12	14.9745
613.495	33.1424
616.87	16.7676
620.245	21.863
623.619	28.3838
626.994	21.305
630.369	17.1572
633.744	18.2022
637.119	25.3629
640.493	14.1777
643.868	1.65927
647.243	19.6939
650.618	13.5335
653.993	11.6693
657.367	16.5159
660.742	0.470886
664.117	17.4196
667.492	26.161
670.867	6.52869
674.242	18.9077
677.616	8.3082
680.991	1.75575
684.366	12.9657
687.741	11.5395
691.116	23.7127
694.49	32.852
697.865	3.97617
701.24	11.4969
704.615	20.6231
707.99	1.32553
711.365	14.2116
714.739	6.51146
718.114	24.9731
721.489	6.922
724.864	4.65538
728.239	4.82402
731.614	13.3854
734.988	0.710388
738.363	12.0147
741.738	14.9998
745.113	2.89143
748.487	11.4043
751.862	4.86627
755.237	19.3664
758.612	15.0856
761.987	8.2851
765.362	12.8821
768.736	8.7995
772.111	1.87164
775.486	24.6011
778.861	1.48909
782.236	0.559341
785.611	13.4153
788.985	0.848663
792.36	4.09746
795.735	27.8291
799.11	17.6706
802.485	14.1792
805.859	8.84015
809.234	13.8963
812.609	2.69232
815.984	22.9897
819.359	7.18274
822.734	8.39433
826.108	10.7817
829.483	17.2513
832.858	23.4192
836.233	21.8159
839.608	20.3245
842.982	15.5585
846.357	26.7424
849.732	1.81236
853.107	34.5973
856.482	23.2779
859.856	17.7546
863.231	23.1262
866.606	19.7363
869.981	3.00662
873.356	21.9546
876.731	19.8203
880.105	26.0873
883.48	21.2387
886.855	12.7341
890.23	1.83501
893.605	20.2781
896.98	27.2526
900.354	20.2881
903.729	18.0781
907.104	10.7194
910.479	20.4765
913.854	14.1609
917.228	17.5537
920.603	9.38194
923.978	15.2957
927.353	1.52437
930.728	14.5804
934.102	21.237
937.477	17.1708
940.852	23.9852
944.227	21.3359
947.602	2.74281
950.977	10.6278
954.351	5.44232
957.726	6.58984
961.101	26.9577
964.476	0.913712
967.851	26.0327
971.226	29.7234
974.6	14.6727
977.975	32.8259
981.35	11.8399
984.725	11.8735
988.1	13.6751
991.474	25.1897
994.849	23.8663
998.224	20.549
1001.6	16.9959
1004.97	27.5849
1008.35	2.63867
1011.72	1.5583
1015.1	15.7372
1018.47	20.5724
1021.85	15.7467
1025.22	14.7122
1028.6	26.2918
1031.97	18.3647
1035.35	20.5467
1038.72	28.4167
1042.1	4.93301
1045.47	22.44
1048.85	20.9006
1052.22	26.092
1055.6	28.5063
1058.97	22.4458
1062.35	22.1014
1065.72	22.1808
1069.1	34.4254
1072.47	35.1774
1075.85	17.3552
1079.22	18.1682
1082.59	16.2434
1085.97	17.0221
1089.34	19.9992
1092.72	16.127
1096.09	33.2571
1099.47	28.0968
1102.84	7.01639
1106.22	23.7728
1109.59	21.7492
1112.97	8.79346
1116.34	7.16965
1119.72	17.9795
1123.09	31.5335
1126.47	14.0249
1129.84	22.3102
1133.22	10.809
1136.59	8.65564
1139.97	7.74587
1143.34	29.2607
1146.72	21.4084
1150.09	12.6031
1153.47	9.07149
1156.84	11.7532
1160.21	0.542313
1163.59	24.6235
1166.96	20.1549
1170.34	25.2112
1173.71	21.8114
1177.09	11.2777
1180.46	20.1985
1183.84	2.91913
1187.21	19.4366
1190.59	16.012
1193.96	2.88628
1197.34	8.04222
1200.71	9.823
1204.09	20.7627
1207.46	6.10808
1210.84	13.59
1214.21	15.2645
1217.59	17.5853
1220.96	18.8908
1224.34	13.7021
1227.71	16.4274
1231.09	9.86031
1234.46	11.9314
1237.84	14.6202
1241.21	20.4868
1244.59	25.7578
1247.96	18.4705
1251.34	23.3344
1254.71	11.3905
1258.09	23.4273
1261.46	20.7327
1264.84	17.5401
1268.21	17.5713
1271.58	19.5774
1274.96	7.10681
1278.33	12.4911
1281.71	14.5652
1285.08	33.488
1288.46	30.2592
1291.83	26.6137
1295.21	17.5723
1298.58	17.7257
1301.96	13.785
1305.33	0
