Measurement: Raman, 532 nm, unoriented, Raman Data Processed
Mineral: Meneghinite
Rruff sample: R050444
Ideal chemistry: Pb^2+^_13_Cu^1+^Sb^3+^_7_S^2-^_24_
Locality: Bottino, Tucsany, Italy
Source: Peter Megaw
Description: Lead-gray metallic slender prismatic and striated crystal
Measured chemistry: (Pb_12.75_Sb_0.25_)_Σ=13.00_(Cu_0.73_Sb_0.13_Fe_0.01_)_Σ=0.87_Sb_7.00_S_24.00_
Raman shift (cm-1)	intensity
120.899	0
124.274	0.963928
127.649	4.03165
131.024	15.3781
134.398	15.9901
137.773	21.4307
141.148	20.3416
144.523	17.2899
147.898	17.1573
151.272	16.1281
154.647	12.7671
158.022	13.202
161.397	12.7024
164.772	12.3903
168.147	15.4093
171.521	14.0927
174.896	16.1401
178.271	17.6962
181.646	18.1897
185.021	18.2998
188.395	20.7446
191.77	24.521
195.145	29.0987
198.52	29.4111
201.895	31.5256
205.269	34.0881
208.644	29.792
212.019	29.223
215.394	25.3753
218.769	22.5355
222.143	18.7594
225.518	17.7231
228.893	20.1336
232.268	19.6164
235.643	25.4099
239.018	25.8573
242.392	29.5889
245.767	29.2535
249.142	30.7681
252.517	30.1834
255.892	30.0637
259.267	30.5671
262.641	27.7954
266.016	25.2352
269.391	20.5851
272.766	16.2466
276.141	12.0982
279.515	8.19627
282.89	2.60445
286.265	1.86073
289.64	0.180534
293.015	1.32497
296.389	4.38551
299.764	0.857971
303.139	1.11252
306.514	4.96725
309.889	8.68442
313.264	12.246
316.638	12.3822
320.013	15.6847
323.388	16.5366
326.763	18.9917
330.138	19.3622
333.512	17.6288
336.887	12.944
340.262	11.0372
343.637	9.63292
347.012	6.99077
350.387	6.39968
353.761	2.62057
357.136	1.45735
360.511	0.563225
363.886	0.662857
367.261	0.713181
370.635	1.29891
374.01	1.98406
377.385	3.10574
380.76	3.40537
384.135	3.09062
387.51	4.08438
390.884	3.6531
394.259	4.80627
397.634	4.96855
401.009	4.10199
404.384	6.61038
407.759	3.76484
411.133	5.01794
414.508	3.45847
417.883	3.97971
421.258	3.42961
424.632	1.1082
428.007	3.30129
431.382	3.31586
434.757	2.24974
438.132	2.3792
441.507	1.10725
444.881	1.81519
448.256	0.794563
451.631	2.05614
455.006	2.43249
458.381	4.70505
461.755	2.69203
465.13	0.877396
468.505	2.00411
471.88	1.74173
475.255	1.54784
478.63	0.552948
482.004	1.3821
485.379	2.1824
488.754	1.42209
492.129	0.149162
495.504	0.913101
498.878	0.732643
502.253	1.24629
505.628	0.921616
509.003	1.66963
512.378	1.6454
515.753	1.18534
519.127	1.02506
522.502	0.234665
525.877	0.02668
529.252	2.05142
532.627	2.33733
536.001	0.850807
539.376	1.78713
542.751	1.4825
546.126	0.083023
549.501	0.289932
552.876	2.56683
556.25	1.48805
559.625	0.889603
563	0.863342
566.375	1.17519
569.75	2.10232
573.125	0.298409
576.499	1.40781
579.874	0.36882
583.249	0.865501
586.624	2.08856
589.999	0.811874
593.373	2.59416
596.748	1.00465
600.123	2.25811
603.498	0.693405
606.873	2.34813
610.247	1.66199
613.622	2.50365
616.997	0.887367
620.372	0.67675
623.747	1.49943
627.121	1.16706
630.496	1.80441
633.871	0.799065
637.246	1.5152
640.621	2.3557
643.996	1.64504
647.37	0.844414
650.745	1.7638
654.12	1.52279
657.495	1.936
660.87	1.98584
664.245	3.20921
667.619	1.20863
670.994	2.5807
674.369	1.89061
677.744	3.12334
681.119	1.47053
684.493	1.59974
687.868	1.72241
691.243	1.88174
694.618	0.134079
697.993	0.973755
701.367	0.837891
704.742	3.36328
708.117	2.51155
711.492	1.2567
714.867	0.856094
718.242	2.01508
721.616	1.47313
724.991	1.29913
728.366	1.03738
731.741	0.724037
735.116	1.29652
738.49	0.710342
741.865	1.96561
745.24	1.56892
748.615	1.63014
751.99	1.16319
755.365	0.004349
758.739	1.48814
762.114	2.00193
765.489	2.23462
768.864	1.29386
772.239	0.173798
775.614	1.14433
778.988	0.920181
782.363	0.95591
785.738	1.3325
789.113	1.10175
792.487	1.77522
795.862	1.73154
799.237	0.516052
802.612	0.561951
805.987	2.07385
809.362	1.26131
812.736	2.45885
816.111	1.82571
819.486	0.906166
822.861	1.21585
826.236	1.93102
829.611	1.95888
832.985	0.949081
836.36	1.58839
839.735	1.66659
843.11	0.253021
846.485	2.09055
849.859	1.32206
853.234	0.490616
856.609	0.736549
859.984	2.00345
863.359	2.45297
866.734	1.66678
870.108	1.46577
873.483	2.16626
876.858	1.00444
880.233	1.55741
883.608	0.539948
886.982	0.490334
890.357	1.5883
893.732	1.13351
897.107	1.16809
900.482	1.59065
903.856	1.92377
907.231	0.109215
910.606	0.235832
913.981	1.49155
917.356	0.609451
920.731	1.06416
924.105	0.869965
927.48	1.87421
930.855	1.24063
934.23	0.283676
937.605	0.530998
940.98	1.97613
944.354	1.14466
947.729	0.16362
951.104	1.88207
954.479	1.94953
957.854	3.06287
961.228	0.588966
964.603	0.425087
967.978	0.530098
971.353	0.641357
974.728	2.17889
978.102	0.011581
981.477	1.85573
984.852	0.544182
988.227	0.608597
991.602	0.538612
994.977	1.66734
998.351	1.78787
1001.73	1.61464
1005.1	1.91332
1008.48	0.637436
1011.85	2.37597
1015.23	1.34003
1018.6	0.041718
1021.98	1.70884
1025.35	2.61699
1028.72	2.68855
1032.1	2.73756
1035.47	1.44647
1038.85	2.02524
1042.22	2.41957
1045.6	1.731
1048.97	0.212151
1052.35	0.778534
1055.72	1.96876
1059.1	1.1002
1062.47	1.73772
1065.85	0.70697
1069.22	1.95437
1072.6	2.31264
1075.97	2.285
1079.35	1.55977
1082.72	0.136162
1086.1	1.26295
1089.47	0.605415
1092.85	2.19794
1096.22	1.7178
1099.6	1.86475
1102.97	1.50575
1106.35	0.067352
1109.72	1.31774
1113.1	0.772606
1116.47	1.73585
1119.85	1.02811
1123.22	0.757515
1126.59	1.76063
1129.97	1.86366
1133.34	2.23301
1136.72	1.17978
1140.09	0.9674
1143.47	2.06216
1146.84	0.082611
1150.22	1.76341
1153.59	0.374359
1156.97	0.322678
1160.34	1.14676
1163.72	1.75314
1167.09	2.12277
1170.47	0.336845
1173.84	1.71222
1177.22	2.47762
1180.59	0.362267
1183.97	2.02089
1187.34	0.703529
1190.72	0.082565
1194.09	2.16751
1197.47	0.707237
1200.84	1.08955
1204.21	0.030914
1207.59	1.67888
1210.96	0.74929
1214.34	3.69833
1217.71	1.63847
1221.09	0.513832
1224.46	1.01716
1227.84	1.92933
1231.21	0.58783
1234.59	1.67542
1237.96	1.34795
1241.34	1.00596
1244.71	2.11733
1248.09	1.17586
1251.46	1.46024
1254.84	2.0344
1258.21	1.84931
1261.59	2.8464
1264.96	1.2928
1268.34	0.584747
1271.71	1.35641
1275.09	1.52067
1278.46	1.72749
1281.84	2.0052
