Measurement: Raman, 532 nm, unoriented, Raman Data Processed
Mineral: Mercallite
Rruff sample: R070072
Ideal chemistry: KHS^6+^O_4_
Locality: crater of Mount Vesuvius, Campagnano di Roma, Italy
Source: Michael Scott
Description: Globular aggregate of white grains, similar in appearance to a snowball
Raman shift (cm-1)	intensity
164.164	0
167.056	78.4766
169.949	124.07
172.842	138.893
175.734	156.764
178.627	186.758
181.52	200.447
184.412	269.471
187.305	365.109
190.198	397.762
193.091	396.293
195.983	444.631
198.876	300.959
201.769	365.098
204.661	323.727
207.554	379.893
210.447	242.973
213.339	256.492
216.232	219.82
219.125	228.305
222.018	291.506
224.91	121.252
227.803	207.289
230.696	133.168
233.588	157.062
236.481	119.393
239.374	152
242.266	230.871
245.159	234.463
248.052	234.266
250.945	260.106
253.837	288.166
256.73	316.51
259.623	370.414
262.515	338.496
265.408	412.938
268.301	410.162
271.193	315.357
274.086	315.732
276.979	162.24
279.872	160.213
282.764	147.977
285.657	148.117
288.55	95.7188
291.442	17.959
294.335	86.793
297.228	151.906
300.12	108.408
303.013	66.3848
305.906	108.947
308.798	69.8164
311.691	240.125
314.584	106.273
317.477	153.033
320.369	89.459
323.262	15.0059
326.155	49.166
329.047	101.498
331.94	23.5957
334.833	81.1934
337.725	18.1348
340.618	34.5
343.511	40.7617
346.404	20.8652
349.296	24.0195
352.189	21.1992
355.082	62.2344
357.974	68.3711
360.867	25.3945
363.76	85.3066
366.652	95.8242
369.545	74.791
372.438	78.5879
375.33	57.2227
378.223	43.666
381.116	159.266
384.009	65.1758
386.901	34.9219
389.794	76.4766
392.687	20.248
395.579	137.051
398.472	70.5762
401.365	99.8184
404.257	49.0312
407.15	194.75
410.043	184.199
412.936	113.484
415.828	181.01
418.721	212.324
421.614	313.455
424.506	303.512
427.399	387.326
430.292	445.772
433.184	418.049
436.077	652.094
438.97	642.74
441.863	996.221
444.755	1145.98
447.648	1465.5
450.541	1477.23
453.433	1364.28
456.326	1064.35
459.219	743.447
462.111	643.402
465.004	453.736
467.897	586.076
470.789	423.371
473.682	430.412
476.575	293.406
479.468	209.16
482.36	292.185
485.253	289.856
488.146	275.15
491.038	302.225
493.931	129.26
496.824	226.545
499.716	239.15
502.609	139.834
505.502	72.3066
508.395	116.393
511.287	90.0586
514.18	21.1895
517.073	33.1367
519.965	8.3457
522.858	27.2363
525.751	42.8359
528.644	116.242
531.536	8.49609
534.429	36.3105
537.322	59.6816
540.214	23.8418
543.107	42.1621
546	44.457
548.892	80.7754
551.785	9.9707
554.678	32.0605
557.57	10.7051
560.463	106.215
563.356	26.5488
566.249	60.8105
569.141	87.8027
572.034	164.062
574.927	67.793
577.819	59.9922
580.712	133.981
583.605	178.453
586.497	252.465
589.39	182.672
592.283	323.648
595.176	194.801
598.068	458.449
600.961	588.223
603.854	715.133
606.746	1005.43
609.639	1197.64
612.532	1351.78
615.424	1507.15
618.317	1284.03
621.21	1041.68
624.102	791.859
626.995	683.266
629.888	542
632.781	553.441
635.673	647.059
638.566	710.672
641.459	777.484
644.351	628.094
647.244	602.793
650.137	552.445
653.029	480.57
655.922	491.773
658.815	343.406
661.708	319.527
664.6	133.078
667.493	64.4414
670.386	181.289
673.278	87.8828
676.171	247.953
679.064	14.0352
681.956	125.879
684.849	13.8555
687.742	56.6758
690.635	56.1211
693.527	136.047
696.42	33.0234
699.313	9.17578
702.205	48.5391
705.098	170
707.991	188.711
710.883	49.1211
713.776	39.2539
716.669	65.7812
719.562	197.574
722.454	72.7109
725.347	162.758
728.24	75.1016
731.132	26.5195
734.025	42.7617
736.918	6.42578
739.81	118.746
742.703	59.4258
745.596	139.137
748.489	18.082
751.381	127.027
754.274	144.539
757.167	101.269
760.059	46.7227
762.952	233.199
765.845	7.30859
768.737	97.3867
771.63	138.492
774.523	152.297
777.415	166.125
780.308	128.902
783.201	88.3789
786.094	200.062
788.986	208.109
791.879	174.125
794.772	84.6133
797.664	43.7422
800.557	142.293
803.45	111.711
806.342	49.7383
809.235	167.953
812.128	100.539
815.02	124.844
817.913	101.191
820.806	165.34
823.699	91.7266
826.591	2.28906
829.484	141.285
832.377	9.50781
835.269	24.1211
838.162	257.109
841.055	211.789
843.947	20.9766
846.84	139.285
849.733	210.938
852.626	167.715
855.518	201.394
858.411	20.1484
861.304	178.219
864.196	161.027
867.089	139.098
869.982	225.746
872.875	268.836
875.767	104.734
878.66	183.223
881.553	159.469
884.445	159.519
887.338	47
890.231	374.418
893.123	203.074
896.016	146.688
898.909	147.773
901.802	256.664
904.694	106.293
907.587	52.5195
910.48	147.797
913.372	164.57
916.265	66.3867
919.158	12.1406
922.05	63.6602
924.943	61.1992
927.836	58.8477
930.728	91.75
933.621	40.8945
936.514	25.2852
939.407	15.9844
942.299	175.336
945.192	163.324
948.085	181.828
950.977	142.547
953.87	199.887
956.763	97.0273
959.655	355.363
962.548	505.82
965.441	652.496
968.333	1563.37
971.226	2756.84
974.119	4289.05
977.012	4879.59
979.904	3990
982.797	2094.12
985.69	1471.19
988.582	1391.41
991.475	1464.46
994.368	1452.53
997.26	1355.48
1000.15	1717.62
1003.05	2376.46
1005.94	2916.05
1008.83	2986.78
1011.72	2403.6
1014.62	1363.29
1017.51	447.043
1020.4	226.891
1023.29	235.519
1026.19	284.453
1029.08	294.617
1031.97	311.625
1034.87	412.332
1037.76	299.758
1040.65	283.246
1043.54	184.102
1046.44	198.254
1049.33	225.109
1052.22	275
1055.11	469.246
1058.01	457.625
1060.9	615.707
1063.79	514.734
1066.68	639.629
1069.58	407.961
1072.47	389.035
1075.36	231.973
1078.26	106.594
1081.15	301.461
1084.04	133.527
1086.93	68.1562
1089.83	82.1367
1092.72	73.8906
1095.61	137.391
1098.51	85.0547
1101.4	138.129
1104.29	7.91016
1107.18	41.4141
1110.08	200.832
1112.97	84.3438
1115.86	139.312
1118.75	269.289
1121.65	301.901
1124.54	383.295
1127.43	474.849
1130.33	443.094
1133.22	432.112
1136.11	440.497
1139	528.184
1141.89	374.109
1144.79	363.332
1147.68	505.547
1150.57	274.469
1153.47	346.719
1156.36	292.117
1159.25	308.941
1162.14	350.473
1165.04	279.668
1167.93	164.32
1170.82	199.961
1173.71	160.617
1176.61	117.019
1179.5	197.273
1182.39	35.0039
1185.29	140.5
1188.18	205.137
1191.07	325.492
1193.96	247.402
1196.86	425.262
1199.75	358.668
1202.64	248.336
1205.54	141.984
1208.43	104.652
1211.32	163.863
1214.21	89.9219
1217.11	56.2891
1220	217.481
1222.89	49.5039
1225.78	62.8164
1228.68	204.191
1231.57	63.2383
1234.46	45.2812
1237.35	111.828
1240.25	247.469
1243.14	120.348
1246.03	39.5
1248.92	143.707
1251.82	67.5117
1254.71	203.316
1257.6	207.242
1260.5	50.2969
1263.39	155.57
1266.28	83.6523
1269.17	175.457
1272.07	110.938
1274.96	248.809
1277.85	155.207
1280.74	214.93
1283.64	193.957
1286.53	196.153
1289.42	326.37
1292.32	292.496
1295.21	189.594
1298.1	312.148
1300.99	159.004
1303.89	32.5391
1306.78	57.0352
1309.67	203.492
1312.56	38.582
1315.46	25.2539
1318.35	0
