Measurement: Raman, 785 nm, unoriented, Raman Data Processed
Mineral: Mercallite
Rruff sample: R070072
Ideal chemistry: KHS^6+^O_4_
Locality: crater of Mount Vesuvius, Campagnano di Roma, Italy
Source: Michael Scott
Description: Globular aggregate of white grains, similar in appearance to a snowball
Raman shift (cm-1)	intensity
185.914	0
188.806	31.3391
191.699	15.6977
194.592	34.9473
197.484	90.4331
200.377	60.3123
203.27	52.8894
206.163	104.262
209.055	99.1997
211.948	95.9304
214.841	91.0947
217.733	142.794
220.626	140.129
223.519	139.166
226.411	83.9023
229.304	118.308
232.197	74.4541
235.09	105.543
237.982	125.897
240.875	104.248
243.768	94.7827
246.66	93.1948
249.553	84.4814
252.446	110.166
255.339	100.529
258.231	144.981
261.124	98.9688
264.017	55.791
266.909	119.576
269.802	107.242
272.695	92.0459
275.587	36.6714
278.48	116.741
281.373	97.0557
284.265	83.1221
287.158	57.9893
290.051	37.4829
292.944	71.1611
295.836	60.7563
298.729	36.875
301.622	65.0571
304.514	66.0669
307.407	21.8667
310.3	67.9258
313.192	22.4297
316.085	4.54394
318.978	31.856
321.871	10.4629
324.763	40.5542
327.656	10.105
330.549	48.002
333.441	24.4888
336.334	29.5591
339.227	12.8315
342.12	19.8232
345.012	0.419434
347.905	19.3169
350.798	42.2847
353.69	12.6562
356.583	8.87354
359.476	1.18311
362.368	30.373
365.261	33.3457
368.154	42.3115
371.046	58.0967
373.939	25.7656
376.832	37.2944
379.725	26.541
382.617	14.3452
385.51	20.0747
388.403	41.5356
391.295	65.437
394.188	32.7134
397.081	15.3057
399.974	3.8125
402.866	0.359375
405.759	32.4414
408.652	33.1973
411.544	44.7466
414.437	78.2412
417.33	50.5107
420.222	60.9131
423.115	51.3086
426.008	36.2749
428.901	40.4883
431.793	49.2808
434.686	127.887
437.579	151.438
440.471	210.251
443.364	299.12
446.257	372.615
449.149	367.591
452.042	357.934
454.935	294.55
457.827	200.962
460.72	153.061
463.613	87.2686
466.506	101.12
469.398	71.29
472.291	44.4463
475.184	32.5601
478.076	19.8101
480.969	38.4736
483.862	14.98
486.755	28.9321
489.647	43.2622
492.54	8.75049
495.433	42.9116
498.325	0.579102
501.218	10.1108
504.111	6.8418
507.003	32.8618
509.896	18.3398
512.789	26.3184
515.682	35.8975
518.574	21.2969
521.467	80.7422
524.36	50.1372
527.252	39.709
530.145	71.1299
533.038	3.70508
535.93	40.1435
538.823	54.8735
541.716	40.9238
544.609	34.8735
547.501	11.2461
550.394	7.61816
553.287	25.769
556.179	36.0772
559.072	56.8872
561.965	32.8911
564.857	23.2227
567.75	27.6914
570.643	11.7993
573.535	13.439
576.428	33.3355
579.321	25.6094
582.214	64.2622
585.106	63.3291
587.999	74.7158
590.892	62.3227
593.784	53.9761
596.677	85.3477
599.57	98.8472
602.462	119.468
605.355	153.048
608.248	263.353
611.141	288.554
614.033	318.708
616.926	360.344
619.819	339.256
622.711	252.946
625.604	207.747
628.497	93.7451
631.389	85.8125
634.282	54.9316
637.175	77.8232
640.068	60.7134
642.96	60.3438
645.853	34.5908
648.746	52.5073
651.638	33.5376
654.531	41.6699
657.424	8.81006
660.317	17.3989
663.209	42.4038
666.102	28.1943
668.995	41.9609
671.887	21.3931
674.78	4.00488
677.673	53.5615
680.565	24.6621
683.458	7.27881
686.351	21.1089
689.244	26.8633
692.136	21.7871
695.029	40.9565
697.922	48.6245
700.814	32.4043
703.707	46.6138
706.6	13.1724
709.492	32.6328
712.385	49.8086
715.278	13.0933
718.17	55.25
721.063	34.8105
723.956	27.0566
726.849	49.7529
729.741	55.0981
732.634	90.7422
735.527	31.4175
738.419	44.7822
741.312	67.1431
744.205	50.4019
747.097	17.084
749.99	85.3926
752.883	67.5029
755.776	63.0781
758.668	49.8384
761.561	2.7959
764.454	36.0068
767.346	0.509277
770.239	8.90332
773.132	72.6938
776.024	10.3066
778.917	65.3862
781.81	50.5166
784.703	26.9033
787.595	45.3608
790.488	0.929199
793.381	48.4131
796.273	78.4756
799.166	0.972656
802.059	28.3047
804.952	5.31592
807.844	43.9468
810.737	39.7627
813.63	43.9873
816.522	43.5723
819.415	55.2231
822.308	18.3794
825.2	21.0493
828.093	34.2852
830.986	19.0459
833.879	29.1509
836.771	14.4334
839.664	29.595
842.557	63.8188
845.449	23.9043
848.342	32.6658
851.235	14.9231
854.127	25.8474
857.02	37.6882
859.913	59.718
862.806	19.7976
865.698	43.1819
868.591	64.1001
871.484	6.52417
874.376	33.1995
877.269	6.78052
880.162	56.4102
883.054	61.03
885.947	48.9617
888.84	14.9575
891.732	62.3603
894.625	42.3279
897.518	42.155
900.411	52.6409
903.303	42.114
906.196	85.3264
909.089	56.0154
911.981	19.1326
914.874	21.9793
917.767	13.2036
920.659	9.87012
923.552	23.7707
926.445	30.7983
929.338	27.9727
932.23	44.8967
935.123	44.3023
938.016	4.07227
940.908	70.2781
943.801	35.053
946.694	13.9509
949.587	0.494629
952.479	37.9263
955.372	91.1626
958.265	77.6504
961.157	134.843
964.05	144.454
966.943	332.229
969.835	583.76
972.728	995.683
975.621	1318.29
978.514	1182.98
981.406	668.071
984.299	339.285
987.192	237.139
990.084	160.592
992.977	139.742
995.87	159.518
998.762	102.589
1001.65	141.759
1004.55	151.057
1007.44	216.035
1010.33	135.874
1013.23	126.262
1016.12	83.5586
1019.01	41.5273
1021.9	60.1318
1024.8	46.6135
1027.69	55.6645
1030.58	94.5349
1033.47	32.9377
1036.37	26.2637
1039.26	17.6611
1042.15	6.20435
1045.05	23.1177
1047.94	44.009
1050.83	80.0972
1053.72	6.87427
1056.62	16.9512
1059.51	72.3447
1062.4	51.2705
1065.29	12.3003
1068.19	44.1174
1071.08	22.384
1073.97	38.9321
1076.87	77.3665
1079.76	8.45483
1082.65	44.3208
1085.54	31.6238
1088.44	28.7639
1091.33	39.6536
1094.22	11.7239
1097.11	53.3025
1100.01	26.623
1102.9	30.8462
1105.79	6.59521
1108.68	21.1106
1111.58	23.2097
1114.47	58.0513
1117.36	21.4299
1120.26	51.3423
1123.15	94.3936
1126.04	52.5662
1128.93	40.6404
1131.83	24.887
1134.72	24.1912
1137.61	28.5496
1140.51	59.3611
1143.4	8.83203
1146.29	75.0752
1149.18	35.647
1152.08	49.3345
1154.97	6.13403
1157.86	36.3743
1160.75	31.8406
1163.65	38.8533
1166.54	30.7061
1169.43	31.0378
1172.32	19.5107
1175.22	28.5373
1178.11	3.08618
1181	35.6421
1183.89	25.7385
1186.79	39.4705
1189.68	47.5483
1192.57	37.4202
1195.47	16.0161
1198.36	29.6148
1201.25	18.0842
1204.14	5.95361
1207.04	79.9426
1209.93	0.87915
1212.82	36.0415
1215.71	67.7627
1218.61	11.625
1221.5	46.4358
1224.39	22.7466
1227.29	22.2766
1230.18	41.7151
1233.07	0.594971
1235.96	68.4045
1238.86	46.5471
1241.75	14.488
1244.64	0
