Measurement: Raman, 785 nm, unoriented, Raman Data Processed
Mineral: Merwinite
Rruff sample: R070195
Ideal chemistry: Ca_3_Mg(SiO_4_)_2_
Locality: Commercial Quarry, Riverside County, California, USA
Source: California Institute of Technology
Description: Light gray massive
Measured chemistry: Ca_3.00_(Mg_0.98_Fe^2+^_0.02_)_Î£=1_(Si_1.00_O_4_)_2_
Raman shift (cm-1)	intensity
181.574	0
184.467	4.84375
187.359	108.019
190.252	363.91
193.145	317.473
196.037	781.191
198.93	842.867
201.823	928.785
204.716	864.008
207.608	852.418
210.501	701.082
213.394	552.148
216.286	716.891
219.179	704.285
222.072	1039.77
224.964	1129.66
227.857	741.965
230.75	633.168
233.643	487.723
236.535	708.121
239.428	786.519
242.321	757
245.213	798.981
248.106	690.191
250.999	549.574
253.892	648.613
256.784	811.957
259.677	791.758
262.57	1025.86
265.462	1278.96
268.355	1072.36
271.248	862.672
274.14	668.832
277.033	598.215
279.926	664.09
282.818	591.324
285.711	439.109
288.604	439.785
291.497	305.555
294.389	11.1836
297.282	11.3086
300.175	83.3164
303.067	17.0977
305.96	160.566
308.853	134.652
311.745	392.332
314.638	228.059
317.531	61.4141
320.424	266.117
323.316	408.461
326.209	717.363
329.102	942.566
331.994	1124.04
334.887	746.66
337.78	513.336
340.673	519.652
343.565	376.227
346.458	428.824
349.351	401.144
352.243	471.707
355.136	368.453
358.029	265.492
360.921	203.664
363.814	54.2539
366.707	35.4336
369.599	163.449
372.492	86.9961
375.385	148.848
378.278	239.906
381.17	215.062
384.063	231.91
386.956	278.066
389.848	310.258
392.741	125.426
395.634	366.293
398.526	365.316
401.419	469.863
404.312	488.281
407.205	339.141
410.097	390.43
412.99	735.402
415.883	1169.02
418.775	1708.89
421.668	1837.05
424.561	1695.92
427.454	897.234
430.346	495.117
433.239	263.484
436.132	96.668
439.024	223.723
441.917	376.863
444.81	229.039
447.702	197.16
450.595	61.4062
453.488	66.5117
456.38	76.4766
459.273	55.5742
462.166	181.809
465.059	128.894
467.951	175.762
470.844	243.078
473.737	342.305
476.629	316.426
479.522	263.445
482.415	358.035
485.308	420.383
488.2	659.984
491.093	738.648
493.986	861.984
496.878	877.781
499.771	812.894
502.664	615.926
505.556	644.988
508.449	749.812
511.342	797.047
514.235	940.965
517.127	673.195
520.02	629.906
522.913	403.375
525.805	303.781
528.698	508.18
531.591	496.664
534.484	578.234
537.376	702.32
540.269	782.32
543.162	500.32
546.054	155.008
548.947	105.117
551.84	58.7109
554.732	6.79688
557.625	70.3047
560.518	352.734
563.41	388.43
566.303	778.984
569.196	702.867
572.088	969.148
574.981	1221.12
577.874	1295.17
580.767	966.602
583.659	524.945
586.552	332.938
589.445	227.109
592.337	35.0234
595.23	116.344
598.123	95.9062
601.015	114.875
603.908	315.336
606.801	175.094
609.694	180.93
612.586	168.32
615.479	52.3828
618.372	21.125
621.264	5.75
624.157	112.633
627.05	341.156
629.942	263.258
632.835	178.562
635.728	101.117
638.621	89.4297
641.513	178.688
644.406	194.328
647.299	196.125
650.191	179.039
653.084	174.094
655.977	315.758
658.87	130.914
661.762	211.812
664.655	123.68
667.548	231.93
670.44	280.172
673.333	247.055
676.226	498.336
679.118	422.578
682.011	295.109
684.904	182.695
687.797	187.594
690.689	33.2734
693.582	158.875
696.475	401.445
699.367	417.781
702.26	285.75
705.153	332.852
708.045	193.688
710.938	280.008
713.831	7.72656
716.723	365.992
719.616	359.969
722.509	281.922
725.402	438.406
728.294	474.406
731.187	310.594
734.08	321.148
736.972	221.969
739.865	157.414
742.758	298.219
745.65	176.914
748.543	321.375
751.436	358.359
754.329	279.734
757.221	38.1016
760.114	187.531
763.007	323.867
765.899	417.016
768.792	157.406
771.685	274.188
774.577	253.18
777.47	147.82
780.363	6.16406
783.256	89
786.148	21.5781
789.041	202.68
791.934	373.453
794.826	59.2188
797.719	4.04688
800.612	61.3438
803.505	37.0156
806.397	92.6328
809.29	43.2734
812.183	55.6953
815.075	220.258
817.968	5.95312
820.861	147.117
823.753	21.6328
826.646	123.719
829.539	68.7344
832.432	55.6953
835.324	98.5312
838.217	131.164
841.11	243.547
844.002	496.82
846.895	428.734
849.788	410.766
852.68	545.852
855.573	896.852
858.466	1363.17
861.359	2162.91
864.251	3154.7
867.144	4089.74
870.037	4637.48
872.929	4047.92
875.822	4303.16
878.715	5496.7
881.607	7933.48
884.5	10332.3
887.393	7393.93
890.285	3767.75
893.178	2148.75
896.071	1528.8
898.964	1470.3
901.856	1928.43
904.749	2656.16
907.642	3485.13
910.534	3153.13
913.427	2786
916.32	2795.95
919.212	2600.66
922.105	1718.09
924.998	1318.1
927.891	511.523
930.783	742.633
933.676	724.266
936.569	635.609
939.461	547.602
942.354	147.969
945.247	360.336
948.139	11.1484
951.032	9.14844
953.925	150.078
956.818	106.641
959.71	36.9453
962.603	19.25
965.496	59.8594
968.388	162.461
971.281	109.227
974.174	4.35938
977.067	92.4219
979.959	136.367
982.852	314.453
985.745	437.18
988.637	486.117
991.53	355.828
994.423	437.648
997.315	333.242
1000.21	819.797
1003.1	1318.52
1005.99	1595.02
1008.89	1824.46
1011.78	1349.28
1014.67	605.367
1017.56	509.992
1020.46	306.977
1023.35	154.211
1026.24	237.969
1029.13	255.758
1032.03	101.43
1034.92	27.8516
1037.81	255.773
1040.71	75.7109
1043.6	176.953
1046.49	269.406
1049.38	391.258
1052.28	492.461
1055.17	430.141
1058.06	534.852
1060.95	591.008
1063.85	539.648
1066.74	694.828
1069.63	765.633
1072.53	767.078
1075.42	541.422
1078.31	768.477
1081.2	736.703
1084.1	523.242
1086.99	566.977
1089.88	464.125
1092.78	352.477
1095.67	120.914
1098.56	420.688
1101.45	500.367
1104.35	404.422
1107.24	377.18
1110.13	165.297
1113.02	179.5
1115.92	2.09375
1118.81	30.5781
1121.7	30.1875
1124.59	262.234
1127.49	54.8125
1130.38	181.078
1133.27	56.0703
1136.16	131.039
1139.06	90.9141
1141.95	147.578
1144.84	24.2734
1147.74	104.461
1150.63	6.80469
1153.52	100.672
1156.41	68.875
1159.31	102.422
1162.2	215.867
1165.09	394.797
1167.98	714.289
1170.88	944.141
1173.77	1189.58
1176.66	1521.84
1179.56	1714.6
1182.45	2108.47
1185.34	2360.77
1188.23	2507.43
1191.13	2249.34
1194.02	2157.53
1196.91	1948.6
1199.8	1788.65
1202.7	1553.06
1205.59	1380.98
1208.48	1225.95
1211.38	990.234
1214.27	540.945
1217.16	643.25
1220.05	372.891
1222.95	103.664
1225.84	14.7031
1228.73	58.1016
1231.62	0
