Measurement: Raman, 780 nm, unoriented, Raman Data Processed
Mineral: Metavariscite
Rruff sample: R050461
Ideal chemistry: AlPO_4_2H_2_O
Locality: Utahlite Hill, Lucin, Utah, USA
Source: University of Arizona Mineral Museum
Description: Group of pale green acicular bladed crystals
Measured chemistry: Al_1.00_P_1.00_O_4_Â·2H_2_O
Raman shift (cm-1)	intensity
129.942	0
133.317	1.49383
136.692	5.30709
140.066	5.42027
143.441	4.25681
146.816	5.99675
150.191	10.2636
153.566	8.83869
156.94	2.13409
160.315	1.01718
163.69	0.046181
167.065	0.363419
170.44	0.45356
173.815	0.045944
177.189	0.307419
180.564	0.179245
183.939	0.583977
187.314	0.989052
190.689	1.50602
194.064	2.48491
197.438	3.36235
200.813	3.70219
204.188	4.85653
207.563	5.03162
210.938	4.91893
214.312	3.87492
217.687	3.02184
221.062	3.74537
224.437	2.68588
227.812	2.42911
231.187	3.41617
234.561	3.06642
237.936	3.09246
241.311	4.23837
244.686	5.1518
248.061	4.96393
251.435	4.86702
254.81	4.04475
258.185	3.50796
261.56	3.89486
264.935	3.3875
268.31	2.55302
271.684	1.89901
275.059	1.2903
278.434	0.251656
281.809	0.162964
285.184	0.229809
288.558	0.220177
291.933	1.07606
295.308	1.00652
298.683	0.596764
302.058	0.674454
305.433	0.744495
308.807	0.515892
312.182	0.576939
315.557	0.997581
318.932	1.71253
322.307	1.92328
325.682	2.27469
329.056	3.62073
332.431	3.6318
335.806	1.09748
339.181	0.223877
342.556	0.382561
345.93	0.298668
349.305	0.9711
352.68	0.139992
356.055	1.6266
359.43	1.81258
362.805	3.99377
366.179	3.98144
369.554	2.46782
372.929	3.56008
376.304	5.50118
379.679	8.09106
383.053	11.3433
386.428	14.384
389.803	17.3598
393.178	21.3108
396.553	22.6871
399.928	19.437
403.302	12.4399
406.677	8.67847
410.052	7.0307
413.427	6.56764
416.802	8.42374
420.176	11.2551
423.551	13.6917
426.926	16.4121
430.301	16.2857
433.676	16.0636
437.05	14.196
440.425	12.3567
443.8	11.4333
447.175	10.9485
450.55	10.9988
453.925	11.02
457.299	11.7114
460.674	8.76969
464.049	7.12983
467.424	5.99014
470.799	5.21863
474.173	4.03367
477.548	4.03072
480.923	4.54318
484.298	4.22411
487.673	4.40038
491.048	4.19727
494.422	3.54584
497.797	2.46807
501.172	1.40959
504.547	0.692684
507.922	0.564827
511.296	0.921257
514.671	0.463879
518.046	0.343987
521.421	0.54306
524.796	1.0185
528.171	1.22802
531.545	2.33038
534.92	4.52839
538.295	6.56133
541.67	8.17145
545.045	10.2596
548.42	9.69377
551.794	9.02511
555.169	8.37732
558.544	8.3649
561.919	8.09963
565.294	8.4078
568.668	10.2921
572.043	11.7522
575.418	12.895
578.793	14.0673
582.168	13.2328
585.543	12.0119
588.917	9.32868
592.292	7.35439
595.667	4.58925
599.042	3.57129
602.417	2.18333
605.791	1.96125
609.166	1.39321
612.541	0.373711
615.916	1.00571
619.291	0.937065
622.665	1.3111
626.04	1.07582
629.415	1.30123
632.79	1.47032
636.165	1.23509
639.54	1.0984
642.914	1.11143
646.289	0.788979
649.664	0.597935
653.039	1.13329
656.414	0.696373
659.789	0.990356
663.163	0.426632
666.538	0.099121
669.913	0.178116
673.288	0.016125
676.663	0.26609
680.038	0.100994
683.412	0.125702
686.787	0.09465
690.162	0.0191
693.537	0.641808
696.912	0.013683
700.286	0.307167
703.661	0.281021
707.036	0.634548
710.411	0.305378
713.786	0.65976
717.16	0.608788
720.535	0.725849
723.91	0.306652
727.285	0.484447
730.66	0.780121
734.034	1.0595
737.409	0.256794
740.784	0.721394
744.159	0.567081
747.534	0.222004
750.909	0.32188
754.284	0.435196
757.658	1.21762
761.033	0.605087
764.408	0.825378
767.783	1.60409
771.158	0.94574
774.532	0.714958
777.907	0.894569
781.282	0.998184
784.657	0.408714
788.032	0.584972
791.407	1.09953
794.781	0.578617
798.156	1.16385
801.531	1.08459
804.906	1.12641
808.281	2.62046
811.655	2.43807
815.03	2.2574
818.405	0.504848
821.78	0.821739
825.155	0.213566
828.529	0.014111
831.904	0.481113
835.279	0.375698
838.654	0.610672
842.029	1.30012
845.404	0.808548
848.778	1.48209
852.153	0.914997
855.528	0.160042
858.903	0.91943
862.278	0.556339
865.653	0.444454
869.027	0.222034
872.402	0.337173
875.777	0.10968
879.152	0.235332
882.527	0.307667
885.901	0.284801
889.276	0.496742
892.651	0.504295
896.026	0.356472
899.401	0.431244
902.775	0.727818
906.15	0.193756
909.525	0.36779
912.9	0.33136
916.275	0.499405
919.65	0.457485
923.024	0.683769
926.399	0.301575
929.774	0.715347
933.149	0.359665
936.524	0.384872
939.899	0.510029
943.273	0.272461
946.648	0.178284
950.023	0.187092
953.398	0.044525
956.773	0.027218
960.148	0.111851
963.522	0.132866
966.897	0.721149
970.272	0.07946
973.647	0.30814
977.021	0.203506
980.396	0.327499
983.771	0.715042
987.146	0.448284
990.521	0.391628
993.896	1.40232
997.27	1.82309
1000.64	3.34172
1004.02	4.43187
1007.39	7.64049
1010.77	12.5985
1014.14	18.0139
1017.52	20.7054
1020.89	17.1597
1024.27	10.9098
1027.64	5.9878
1031.02	4.16683
1034.39	2.30315
1037.77	1.20211
1041.14	0.776512
1044.52	0.417881
1047.89	1.17518
1051.27	1.7557
1054.64	2.99083
1058.02	4.08369
1061.39	6.3201
1064.77	7.93826
1068.14	12.1691
1071.52	16.5096
1074.89	22.6723
1078.27	26.9301
1081.64	22.8857
1085.02	14.2882
1088.39	8.23485
1091.77	4.05638
1095.14	2.98142
1098.52	2.31916
1101.89	1.65112
1105.27	0.844124
1108.64	0.793438
1112.01	0.033817
1115.39	0.155125
1118.76	0.467995
1122.14	0.526169
1125.51	0.298134
1128.89	0.304607
1132.26	0.005371
1135.64	0.242119
1139.01	0.155251
1142.39	0.658173
1145.76	0.091095
1149.14	0.638298
1152.51	0.564743
1155.89	0.040943
1159.26	0.814358
1162.64	0.511471
1166.01	0.034245
1169.39	0.290916
1172.76	0.790874
1176.14	0.657894
1179.51	0.481613
1182.88	0.194283
1186.26	0.057373
1189.63	0.560299
1193.01	0.600536
1196.38	0.748997
1199.76	0.17321
1203.13	1.27532
1206.51	0.769241
1209.88	0.796524
1213.26	1.14247
1216.63	0.153374
1220.01	0.746117
1223.38	0.75795
1226.76	1.06424
1230.13	1.03817
1233.51	0.763741
1236.88	2.04975
1240.26	0.699223
1243.63	0.491997
1247.01	1.0489
1250.38	0.24839
1253.76	1.42446
1257.13	0.411247
1260.51	0.628075
1263.88	1.44861
1267.26	0.192181
1270.63	0.667316
1274.01	0.784805
1277.38	0.001602
1280.76	0.212952
1284.13	0.310581
1287.51	0
