Measurement: Raman, 532 nm, unoriented, Raman Data Processed
Mineral: Metastibnite
Rruff sample: R060755
Ideal chemistry: Sb^3+^_2_S^2-^_3_
Locality: San Jose mine, Oruro, Bolivia
Source: Michael Scott
Description: Dark red semi-metallic botryoidal groups
Raman shift (cm-1)	intensity
138.879	0
141.772	25.2094
144.665	58.3095
147.557	56.1549
150.45	13.3034
153.343	40.98
156.235	85.2973
159.128	80.4088
162.021	97.8617
164.913	117.176
167.806	102.076
170.699	84.4384
173.592	70.5045
176.484	32.5688
179.377	35.1362
182.27	5.47107
185.162	40.7751
188.055	67.6769
190.948	29.9641
193.84	17.2609
196.733	6.68286
199.626	24.0728
202.519	3.97101
205.411	25.5629
208.304	2.66699
211.197	38.6906
214.089	41.6422
216.982	55.3422
219.875	80.4115
222.767	83.3553
225.66	126.806
228.553	147.672
231.446	163.912
234.338	212.787
237.231	292.308
240.124	272.709
243.016	304.9
245.909	360.895
248.802	366.139
251.694	387.838
254.587	361.219
257.48	457.373
260.373	447.373
263.265	474.834
266.158	513.25
269.051	557.384
271.943	550.238
274.836	529.58
277.729	554.332
280.621	556.332
283.514	584.715
286.407	535.22
289.3	574.736
292.192	525.702
295.085	521.893
297.978	566.058
300.87	541.319
303.763	533.586
306.656	493.204
309.548	461.456
312.441	467.009
315.334	409.183
318.226	396.849
321.119	353.348
324.012	370.023
326.904	339.031
329.797	282.063
332.69	305.381
335.583	315.621
338.475	234.844
341.368	220.534
344.261	187.553
347.153	147.39
350.046	110.989
352.939	57.7997
355.832	16.4207
358.724	46.8538
361.617	23.3878
364.51	17.8209
367.402	5.14844
370.295	23.4444
373.188	16.0045
376.08	30.132
378.973	1.84033
381.866	15.9457
384.759	31.6873
387.651	31.4316
390.544	15.0922
393.437	18.9543
396.329	47.2281
399.222	22.3417
402.115	32.3331
405.007	41.5527
407.9	40.8925
410.793	49.3987
413.685	98.4667
416.578	51.4074
419.471	64.7054
422.364	57.1569
425.256	50.0891
428.149	76.2375
431.042	45.1638
433.934	31.2476
436.827	23.9818
439.72	54.7882
442.612	48.0974
445.505	49.1753
448.398	5.17947
451.291	59.7783
454.183	53.3976
457.076	40.7274
459.969	20.0677
462.861	45.6852
465.754	58.1902
468.647	70.5654
471.539	10.8645
474.432	26.2578
477.325	43.4138
480.217	39.7848
483.11	60.2724
486.003	50.7983
488.896	41.8543
491.788	26.6086
494.681	65.5188
497.574	18.1488
500.466	42.4485
503.359	26.389
506.252	0.31778
509.144	50.6045
512.037	58.1467
514.93	53.6208
517.823	50.1092
520.715	57.6136
523.608	33.1223
526.501	44.4627
529.393	19.9339
532.286	21.2039
535.179	10.0504
538.072	21.2508
540.964	57.3592
543.857	17.7719
546.75	28.5987
549.642	41.7676
552.535	19.1529
555.428	28.0368
558.32	43.537
561.213	25.0171
564.106	31.3276
566.998	56.0697
569.891	9.30872
572.784	27.3465
575.677	31.1603
578.569	45.0787
581.462	27.3379
584.355	13.0076
587.247	45.8412
590.14	28.7859
593.033	12.7653
595.925	39.865
598.818	5.21155
601.711	50.2255
604.604	71.4826
607.496	64.4981
610.389	7.90347
613.282	20.7619
616.174	18.374
619.067	22.8243
621.96	23.4598
624.852	95.8477
627.745	37.123
630.638	14.6575
633.53	57.2522
636.423	59.4434
639.316	48.2378
642.209	48.5134
645.101	52.0715
647.994	56.9827
650.887	10.407
653.779	34.2641
656.672	13.4341
659.565	8.12247
662.457	39.7519
665.35	42.8729
668.243	34.2614
671.135	50.3949
674.028	54.9161
676.921	27.0146
679.814	35.5819
682.706	21.6724
685.599	10.1775
688.492	28.1647
691.384	25.041
694.277	39.7327
697.17	7.4932
700.062	18.5247
702.955	32.6479
705.848	6.91116
708.741	66.9647
711.633	8.79883
714.526	55.2856
717.419	52.7279
720.311	47.4681
723.204	41.7544
726.097	47.2411
728.99	38.4919
731.882	26.7903
734.775	30.5995
737.668	37.6886
740.56	46.0845
743.453	17.0039
746.346	65.6223
749.238	64.0353
752.131	15.0986
755.024	39.5921
757.916	47.1019
760.809	17.9341
763.702	27.812
766.595	61.2728
769.487	22.0133
772.38	37.2676
775.273	24.5141
778.165	40.1407
781.058	10.2212
783.951	25.6171
786.843	22.3779
789.736	56.0658
792.629	71.7908
795.521	44.3693
798.414	60.6598
801.307	64.4646
804.2	27.65
807.092	23.8212
809.985	31.8352
812.878	41.6421
815.77	44.7258
818.663	26.3703
821.556	1.29593
824.448	6.37418
827.341	16.9315
830.234	13.6332
833.127	17.2512
836.019	31.958
838.912	26.7457
841.805	65.5962
844.697	22.4619
847.59	11.6642
850.483	35.0312
853.375	60.8561
856.268	55.2012
859.161	20.6858
862.053	15.1537
864.946	32.5462
867.839	49.8345
870.732	48.4723
873.624	74.216
876.517	83.1951
879.41	49.8272
882.302	26.3066
885.195	64.8568
888.088	63.8091
890.981	11.1837
893.873	48.5391
896.766	37.4098
899.659	9.64896
902.551	33.695
905.444	6.24191
908.337	22.9789
911.229	62.4092
914.122	40.8207
917.015	37.02
919.908	50.3374
922.8	44.2986
925.693	16.7532
928.586	36.2693
931.478	66.377
934.371	15.7792
937.264	7.00143
940.156	62.0388
943.049	54.4838
945.942	43.1686
948.835	16.8685
951.727	25.3744
954.62	19.0762
957.513	39.0899
960.405	79.3239
963.298	10.817
966.191	24.1643
969.083	42.5497
971.976	29.5189
974.869	33.028
977.761	25.3962
980.654	14.7124
983.547	68.0185
986.439	35.7794
989.332	27.0768
992.225	50.8228
995.118	29.6215
998.01	40.7168
1000.9	41.8196
1003.8	1.77014
1006.69	14.9934
1009.58	70.7355
1012.47	52.4012
1015.37	18.573
1018.26	5.95258
1021.15	41.4715
1024.05	16.9312
1026.94	23.3457
1029.83	58.2448
1032.72	53.4484
1035.62	4.52203
1038.51	28.8522
1041.4	36.6925
1044.29	18.7017
1047.19	0.952942
1050.08	58.7848
1052.97	31.1108
1055.86	13.0808
1058.76	38.7396
1061.65	57.4573
1064.54	43.0439
1067.43	5.45688
1070.33	64.6854
1073.22	46.3218
1076.11	30.1003
1079.01	34.0938
1081.9	37.4695
1084.79	63.443
1087.68	20.2409
1090.58	71.4442
1093.47	47.953
1096.36	15.472
1099.26	28.9932
1102.15	13.967
1105.04	43.7239
1107.93	43.0638
1110.83	41.6897
1113.72	70.2508
1116.61	33.3642
1119.5	66.2917
1122.4	45.5663
1125.29	30.347
1128.18	22.0353
1131.07	32.8106
1133.97	4.49176
1136.86	15.2046
1139.75	25.3668
1142.64	39.0623
1145.54	22.948
1148.43	50.3716
1151.32	62.1409
1154.22	88.7259
1157.11	20.5599
1160	33.18
1162.89	36.5501
1165.79	53.2158
1168.68	63.3284
1171.57	9.62335
1174.46	5.89947
1177.36	17.6059
1180.25	30.0179
1183.14	39.1899
1186.04	45.0495
1188.93	39.2764
1191.82	34.4475
1194.71	38.5922
1197.61	17.153
1200.5	49.1442
1203.39	3.22089
1206.29	3.44904
1209.18	72.5619
1212.07	32.3756
1214.96	0.588104
1217.86	9.12051
1220.75	41.6508
1223.64	15.903
1226.53	45.508
1229.43	26.002
1232.32	37.7559
1235.21	47.2495
1238.1	8.75748
1241	60.4091
1243.89	9.99881
1246.78	16.9014
