Measurement: Raman, 780 nm, unoriented, Raman Data Processed
Mineral: Metazeunerite
Rruff sample: R060301
Ideal chemistry: Cu^2+^(U^6+^O_2_)_2_(As^5+^O_4_)_2_8H_2_O
Locality: Joachimstal, Bohemia, Czech Republic
Source: University of Arizona Mineral Museum
Description: Green blocky dipyramidal single crystals associated with yellow walpurgite, R050573
Raman shift (cm-1)	intensity
155.655	0
158.547	0.977419
161.44	0.032457
164.333	0.005287
167.226	0.941849
170.118	0.648775
173.011	1.22758
175.904	0.579836
178.796	0.207615
181.689	0.63102
184.582	1.25677
187.474	1.03802
190.367	0.807877
193.26	1.46815
196.153	0.596437
199.045	1.07357
201.938	0.118013
204.831	0.11088
207.723	0.981781
210.616	0.225163
213.509	0.54689
216.401	0.485109
219.294	0.673704
222.187	0.56625
225.079	1.18085
227.972	1.66122
230.865	1.34997
233.758	1.28744
236.65	1.24478
239.543	1.71053
242.436	1.30567
245.328	1.02292
248.221	1.09795
251.114	0.229168
254.006	0.972956
256.899	1.25409
259.792	0.93644
262.685	0.698111
265.577	0.655863
268.47	1.49366
271.363	0.693914
274.255	0.411438
277.148	0.231514
280.041	1.10415
282.933	0.267792
285.826	0.841146
288.719	0.080214
291.612	0.548897
294.504	1.46819
297.397	0.705969
300.29	1.01989
303.182	0.181225
306.075	0.808762
308.968	0.031906
311.861	0.172083
314.753	0.297871
317.646	0.300167
320.539	0.698124
323.431	1.13236
326.324	0.702164
329.217	0.002079
332.109	0.094965
335.002	0.484568
337.895	1.16149
340.788	0.933535
343.68	0.209377
346.573	0.206919
349.466	0.643007
352.358	0.317543
355.251	0.134956
358.144	0.775064
361.036	0.696512
363.929	0.776491
366.822	0.96641
369.715	0.522024
372.607	0.468941
375.5	0.373943
378.393	0.781898
381.285	0.417294
384.178	0.608624
387.071	0.888275
389.964	0.783552
392.856	0.549389
395.749	0.949789
398.642	0.949615
401.534	1.68573
404.427	0.967909
407.32	0.62067
410.212	0.397577
413.105	0.480017
415.998	0.107004
418.89	0.508888
421.783	0.489191
424.676	0.542889
427.569	1.12043
430.461	0.153217
433.354	0.383139
436.247	0.315338
439.139	0.507074
442.032	1.03349
444.925	1.03671
447.817	0.706081
450.71	1.06241
453.603	1.02352
456.496	1.14633
459.388	0.971825
462.281	1.39989
465.174	0.66325
468.066	0.681479
470.959	0.853649
473.852	1.38167
476.745	0.974394
479.637	0.723984
482.53	1.12852
485.423	0.309107
488.315	0.676695
491.208	1.06233
494.101	1.03599
496.993	0.955788
499.886	0.879391
502.779	0.757853
505.671	0.940117
508.564	0.4849
511.457	0.537651
514.35	0.111013
517.242	0.648378
520.135	0.147882
523.028	0.081575
525.92	0.194868
528.813	0.089571
531.706	0.263252
534.598	0.145929
537.491	0.499172
540.384	0.610155
543.277	0.392162
546.169	0.615955
549.062	0.14452
551.955	0.738749
554.847	1.14628
557.74	0.167385
560.633	0.906687
563.525	0.876186
566.418	0.595228
569.311	0.544662
572.204	0.483753
575.096	0.561329
577.989	0.499697
580.882	0.504387
583.774	0.431143
586.667	0.081263
589.56	0.522821
592.452	0.861767
595.345	0.169163
598.238	0.759529
601.131	0.67922
604.023	0.326981
606.916	1.10491
609.809	0.476231
612.701	0.604534
615.594	0.549988
618.487	0.647173
621.38	0.346067
624.272	1.00649
627.165	0.772024
630.058	0.840567
632.95	0.427082
635.843	0.597393
638.736	0.07877
641.628	0.031263
644.521	0.735901
647.414	0.250259
650.307	0.208815
653.199	0.49379
656.092	0.06908
658.985	0.021215
661.877	0.921755
664.77	0.724924
667.663	0.875692
670.555	0.621994
673.448	0.595493
676.341	1.28157
679.234	0.644548
682.126	1.02559
685.019	0.607182
687.912	0.658949
690.804	0.078571
693.697	0.390635
696.59	1.0024
699.482	0.344862
702.375	0.876965
705.268	0.71814
708.16	0.208403
711.053	0.701527
713.946	0.079981
716.839	0.181248
719.731	0.57325
722.624	0.691984
725.517	0.345287
728.409	0.431297
731.302	0.552744
734.195	0.329056
737.087	0.520966
739.98	0.324598
742.873	0.699526
745.766	0.081116
748.658	0.054457
751.551	0.000555
754.444	0.030252
757.336	0.771864
760.229	0.782328
763.122	1.34938
766.014	0.56238
768.907	1.33746
771.8	1.23366
774.693	1.86633
777.585	2.2057
780.478	2.53198
783.371	2.03054
786.263	2.61725
789.156	2.32857
792.049	2.77374
794.942	3.14972
797.834	4.45325
800.727	4.83631
803.62	5.43362
806.512	6.06772
809.405	6.52808
812.298	7.50453
815.19	6.97426
818.083	7.14937
820.976	8.11137
823.869	7.78431
826.761	6.66888
829.654	6.52512
832.547	6.13068
835.439	4.3474
838.332	3.71118
841.225	2.30662
844.117	2.71505
847.01	1.84088
849.903	2.08152
852.795	1.43841
855.688	0.221233
858.581	0.02059
861.474	0.571461
864.366	0.525604
867.259	0.022406
870.152	0.807972
873.044	0.73877
875.937	0.375416
878.83	0.248611
881.722	0.6464
884.615	1.31249
887.508	1.03233
890.401	1.06033
893.293	0.243822
896.186	0.147358
899.079	0.845516
901.971	0.956631
904.864	0.378557
907.757	0.057508
910.649	0.56399
913.542	0.041525
916.435	0.450945
919.328	0.089127
922.22	0.190607
925.113	0.470638
928.006	0.033966
930.898	0.122429
933.791	0.350971
936.684	0.207977
939.577	0.189068
942.469	0.247648
945.362	0.966251
948.255	0.408594
951.147	0.615602
954.04	0.175159
956.933	0.808428
959.825	0.498198
962.718	0.374166
965.611	0.905443
968.504	0.799032
971.396	1.38792
974.289	1.28382
977.182	1.12325
980.074	1.52065
982.967	1.63427
985.86	1.55325
988.752	0.736975
991.645	0.98152
994.538	1.2521
997.431	1.04292
1000.32	0.880278
1003.22	0.517281
1006.11	0.882902
1009	0.989025
1011.89	0.847382
1014.79	1.15106
1017.68	0.666151
1020.57	0.765762
1023.47	0.473713
1026.36	0.877247
1029.25	0.238266
1032.14	0.702757
1035.04	0.313944
1037.93	0.311239
1040.82	0.137131
1043.71	0.720097
1046.61	0.562153
1049.5	0.367588
1052.39	0.543509
1055.29	0.089775
1058.18	0.41922
1061.07	0.670948
1063.96	1.00136
1066.86	0.462259
1069.75	0.621603
1072.64	0.93803
1075.53	0.340118
1078.43	0.510717
1081.32	0.637991
1084.21	0.384544
1087.1	0.869326
1090	0.52857
1092.89	0.213934
1095.78	0.593664
1098.67	0.244432
1101.57	0.262575
1104.46	1.05939
1107.35	0.758152
1110.25	1.41873
1113.14	0.366526
1116.03	0.237288
1118.92	0.675209
1121.82	1.27939
1124.71	0.593952
1127.6	0.351377
1130.49	0.858343
1133.39	0.19619
1136.28	1.16877
1139.17	0.38279
1142.07	0.402199
1144.96	0.194399
1147.85	0.683849
1150.74	0.35331
1153.64	0.538052
1156.53	0.642694
1159.42	0.663736
1162.31	0.247459
1165.21	1.43292
1168.1	0.456373
1170.99	0.065079
1173.88	0.590506
1176.78	0.095062
1179.67	0.572092
1182.56	0.485367
1185.46	0.894548
1188.35	0.904758
1191.24	1.48195
1194.13	0.180742
1197.03	0.168007
1199.92	0.984293
1202.81	0.805059
1205.7	0.489124
1208.6	0.156721
1211.49	0.269823
1214.38	0.242268
1217.28	0.851223
1220.17	0.780079
1223.06	0.334803
1225.95	0.696684
1228.85	0.223831
1231.74	1.0346
1234.63	0.747858
1237.53	0.801849
1240.42	0.832451
1243.31	0.579819
1246.2	1.15049
1249.1	0.588478
1251.99	0.294052
1254.88	0.636499
1257.77	0.321505
1260.67	0.910789
1263.56	0.666634
1266.45	0.825558
1269.34	0.858883
1272.24	0.47529
1275.13	0.947615
1278.02	0.706944
1280.91	0.40835
1283.81	0.006205
