Measurement: Raman, 532 nm, unoriented, Raman Data Processed
Mineral: Metaheinrichite
Rruff sample: R060778
Ideal chemistry: Ba(U^6+^O_2_)_2_(As^5+^O_4_)_2_8H_2_O
Locality: Schmiedestoll, Wittichen, Schwarzwald, Germany
Source: Michael Scott
Description: Pale green thin tabular crystals with rectangular outline
Raman shift (cm-1)	intensity
152.379	0
155.271	89.1953
158.164	229.231
161.057	1081.79
163.949	1593.2
166.842	1666.46
169.735	1353.7
172.627	1073.71
175.52	1363.26
178.413	1481.36
181.305	1768.49
184.198	2049.01
187.091	2218.45
189.983	2105.41
192.876	2127.75
195.769	1623.08
198.662	1599.55
201.554	1538.64
204.447	1667.89
207.34	1669.29
210.232	1662.38
213.125	1419
216.018	1418.77
218.911	1153.04
221.803	1286.21
224.696	1246.89
227.589	1065.83
230.481	999.785
233.374	1040.84
236.267	1117.61
239.159	763.078
242.052	897.957
244.945	932.312
247.838	972.453
250.73	1080.27
253.623	559.457
256.516	493.902
259.408	528.207
262.301	625.953
265.194	779.688
268.086	524.793
270.979	502.969
273.872	278.328
276.764	409.164
279.657	334.273
282.55	341.945
285.442	257.231
288.335	210.344
291.228	265.231
294.121	59.0469
297.013	282.223
299.906	153.25
302.799	36.0391
305.691	289.25
308.584	392.027
311.477	502.141
314.37	226.801
317.262	144.426
320.155	664.473
323.048	336.523
325.94	389.152
328.833	250.867
331.726	311.203
334.618	309.07
337.511	180.285
340.404	196.203
343.296	17.2305
346.189	61.2617
349.082	116.551
351.975	347.269
354.867	291.019
357.76	162.981
360.653	13.4844
363.545	144.297
366.438	58.3047
369.331	62.1445
372.224	136.242
375.116	31.4023
378.009	263.481
380.902	316.918
383.794	300.84
386.687	492.672
389.58	532.453
392.472	566.644
395.365	406.5
398.258	324.367
401.151	464.414
404.043	297.664
406.936	372.957
409.829	378.012
412.721	469.844
415.614	570.102
418.507	692.07
421.399	654.606
424.292	558.582
427.185	360.75
430.077	173.062
432.97	429.676
435.863	239.469
438.755	495.129
441.648	506.656
444.541	515.262
447.434	504.602
450.326	468.262
453.219	376.941
456.112	388.492
459.004	299.324
461.897	388.211
464.79	480.648
467.683	236.191
470.575	443.281
473.468	278.043
476.361	217.906
479.253	99.8086
482.146	123.875
485.039	585.551
487.931	407.934
490.824	173.727
493.717	177.586
496.61	67.3984
499.502	45.8242
502.395	23.0859
505.288	225.231
508.18	179.621
511.073	307.195
513.966	277.566
516.858	538.836
519.751	562.938
522.644	612.477
525.536	578.684
528.429	793.152
531.322	572.168
534.215	196.172
537.107	97.1484
540	77.0078
542.893	404.25
545.785	186.617
548.678	336.707
551.571	156.969
554.463	368.766
557.356	6.38281
560.249	162.969
563.141	35.7734
566.034	55.7578
568.927	119.242
571.82	20.5
574.712	13.1562
577.605	116.117
580.498	224.758
583.39	17.3672
586.283	29.3828
589.176	143.055
592.068	168.914
594.961	118.789
597.854	167.945
600.747	187.602
603.639	416.461
606.532	590.898
609.425	932.406
612.317	1005.55
615.21	1094.7
618.103	1111.98
620.995	1211.43
623.888	1511.51
626.781	1577.37
629.673	1550.01
632.566	1266.27
635.459	1483.12
638.352	1266.52
641.244	1389.31
644.137	1467.22
647.03	1342.12
649.922	2019.83
652.815	2128.05
655.708	1999.09
658.601	1880.69
661.493	1758.39
664.386	1601.39
667.279	1596.3
670.171	1690.09
673.064	1588.78
675.957	1037.75
678.849	917.766
681.742	1140.37
684.635	1112.81
687.528	1171.52
690.42	975.602
693.313	1107.12
696.206	839.141
699.098	611.375
701.991	360.305
704.884	256.398
707.776	228.547
710.669	255.383
713.562	2.6875
716.455	253.562
719.347	292.281
722.24	435.836
725.133	467.648
728.025	336.945
730.918	41.3594
733.811	42.1953
736.703	146.188
739.596	17.0938
742.489	156.906
745.381	441
748.274	488.938
751.167	274.672
754.059	3.85156
756.952	171.703
759.845	8.57812
762.738	289.047
765.63	105.273
768.523	260.953
771.416	398.438
774.308	268.766
777.201	154.969
780.094	76.0938
782.986	411.086
785.879	396.453
788.772	758.106
791.665	1195.95
794.557	1687.59
797.45	2329.74
800.343	3070.61
803.235	3888.91
806.128	4864.56
809.021	5557.04
811.913	5090.78
814.806	3948.32
817.699	3279.34
820.592	2512.09
823.484	1653.46
826.377	1278.28
829.27	977.82
832.162	467.406
835.055	134.496
837.948	302.352
840.841	117.992
843.733	126.141
846.626	186.309
849.519	233.812
852.411	12.1211
855.304	228.242
858.197	21.2031
861.089	283.512
863.982	297.523
866.875	216.731
869.767	213.379
872.66	237.242
875.553	310.844
878.446	471.266
881.338	562.832
884.231	674.184
887.124	728.84
890.016	748.691
892.909	1000.55
895.802	1238.79
898.694	1198.71
901.587	987.137
904.48	899.516
907.372	793.254
910.265	636.785
913.158	360.898
916.051	408.613
918.943	210.742
921.836	529.555
924.729	558.656
927.621	752.918
930.514	640.606
933.407	388.133
936.299	424.852
939.192	375.371
942.085	441.258
944.977	244.742
947.87	118.207
950.763	66.5039
953.656	130.719
956.548	193.227
959.441	264.894
962.334	241.699
965.226	336.059
968.119	219.934
971.012	150.227
973.904	158.676
976.797	235.644
979.69	312.691
982.583	222.289
985.475	226.473
988.368	183.059
991.261	70.7852
994.153	15.0977
997.046	235.957
999.939	144.078
1002.83	192.324
1005.72	89.9805
1008.62	128.234
1011.51	205.527
1014.4	9.63281
1017.29	186.711
1020.19	117.496
1023.08	159.566
1025.97	301.281
1028.87	278.838
1031.76	293.752
1034.65	83.9258
1037.54	233.791
1040.44	280.684
1043.33	146.758
1046.22	77.8848
1049.12	4.42188
1052.01	217.144
1054.9	195.172
1057.79	289.174
1060.68	188.769
1063.58	18.4805
1066.47	17.7227
1069.36	2.12305
1072.26	8.97852
1075.15	46.5996
1078.04	2.875
1080.93	26.084
1083.83	3.77148
1086.72	196.539
1089.61	83.4707
1092.51	126.426
1095.4	121.074
1098.29	326.268
1101.18	149.353
1104.08	264.953
1106.97	190.846
1109.86	161.902
1112.75	126.305
1115.65	51.3652
1118.54	63.252
1121.43	76.7754
1124.33	70.418
1127.22	69.3379
1130.11	358.324
1133	222.803
1135.9	294.897
1138.79	33.8984
1141.68	161.26
1144.57	161.334
1147.47	22.5801
1150.36	39.7559
1153.25	140.172
1156.14	196.234
1159.04	160.498
1161.93	26.0371
1164.82	150.644
1167.71	45.7656
1170.61	70.5273
1173.5	86.6465
1176.39	221.703
1179.29	192.361
1182.18	148.84
1185.07	237.834
1187.96	200.08
1190.86	89.7734
1193.75	136.9
1196.64	150.815
1199.54	29.625
1202.43	42.6855
1205.32	3.6543
1208.21	126.064
1211.11	138.059
1214	214.178
1216.89	193.334
1219.78	91.3301
1222.68	101.242
1225.57	192.027
1228.46	80.7578
1231.36	12.1211
1234.25	145.353
1237.14	234.848
1240.03	206.361
1242.92	129.889
1245.82	186.803
1248.71	268.6
1251.6	175.273
1254.5	187.248
1257.39	145.057
1260.28	184.33
1263.17	87.4863
1266.07	64.3594
1268.96	159.523
1271.85	246.893
1274.74	297.609
1277.64	312.975
1280.53	86.3066
1283.42	186.59
1286.32	99.2715
1289.21	1.42188
