Measurement: Raman, 532 nm, unoriented, Raman Data Processed
Mineral: Metavoltine
Rruff sample: R070542
Ideal chemistry: K_2_Na_6_Fe^2+^Fe^3+^_6_O_2_(S^6+^O_4_)_12_18H_2_O
Locality: Vulcano Island. Lipari Islands, Messina Province, Sicily, Italy
Source: James Shigley
Description: Dark yellow granular crystals
Raman shift (cm-1)	intensity
154.012	0
156.905	42.3525
159.798	60.3547
162.69	41.0647
165.583	11.7737
168.476	25.0719
171.369	8.20349
174.261	0.507568
177.154	5.65613
180.047	65.5362
182.939	110.847
185.832	128.493
188.725	181.215
191.617	196.688
194.51	215.316
197.403	191.29
200.296	205.491
203.188	155.329
206.081	140.652
208.974	190.622
211.866	191.929
214.759	137.261
217.652	208.557
220.544	310.607
223.437	342.75
226.33	376.181
229.222	439.401
232.115	507.113
235.008	520.544
237.901	606.564
240.793	667.763
243.686	744.773
246.579	784.533
249.471	877.027
252.364	987.077
255.257	1056.88
258.149	1245.46
261.042	1464.22
263.935	1814.16
266.828	1889.57
269.72	1703.03
272.613	1232.29
275.506	810.883
278.398	492.772
281.291	350.095
284.184	257.704
287.077	153.203
289.969	112.728
292.862	60.3602
295.755	58.7889
298.647	56.3533
301.54	30.9517
304.433	27.3946
307.325	19.6698
310.218	11.9702
313.111	12.1818
316.004	17.9163
318.896	26.6197
321.789	4.88989
324.682	6.45752
327.574	10.1658
330.467	0.602783
333.36	32.3467
336.252	5.7489
339.145	21.9617
342.038	47.3593
344.931	18.749
347.823	71.4867
350.716	37.5431
353.609	24.1648
356.501	72.7079
359.394	18.7367
362.287	31.1071
365.18	41.577
368.072	35.8606
370.965	10.8123
373.858	27.4614
376.75	24.5079
379.643	31.4645
382.536	19.3546
385.428	25.8999
388.321	31.7825
391.214	21.4655
394.106	13.9572
396.999	19.0449
399.892	36.1329
402.785	8.22717
405.677	9.38049
408.57	27.2786
411.463	22.6625
414.355	43.0335
417.248	60.4622
420.141	104.619
423.034	123.537
425.926	171.812
428.819	225.443
431.712	308.188
434.604	334.466
437.497	384.335
440.39	425.484
443.282	472.329
446.175	534.453
449.068	491.044
451.961	381.382
454.853	254.203
457.746	190.252
460.639	182.161
463.531	155.715
466.424	142.189
469.317	165.26
472.209	171.797
475.102	166.939
477.995	191.175
480.887	198.976
483.78	222.154
486.673	196.31
489.566	212.643
492.458	175.266
495.351	213.726
498.244	176.955
501.136	157.161
504.029	119.112
506.922	134.982
509.815	62.7267
512.707	40.3336
515.6	4.56836
518.493	19.6837
521.385	11.993
524.278	1.05127
527.171	8.7627
530.063	9.23315
532.956	45.5963
535.849	68.4309
538.742	96.8569
541.634	157.818
544.527	172.017
547.42	204.859
550.312	225.55
553.205	224.205
556.098	241.127
558.99	197.961
561.883	165.802
564.776	157.53
567.669	108.992
570.561	65.1615
573.454	58.4076
576.347	8.04797
579.239	4.58008
582.132	9.72278
585.025	22.7374
587.918	20.4806
590.81	28.717
593.703	57.2156
596.596	57.8865
599.488	68.6792
602.381	55.3179
605.274	55.3898
608.166	60.7877
611.059	31.5991
613.952	65.8803
616.845	34.418
619.737	43.2906
622.63	39.1694
625.523	0.748169
628.415	23.8739
631.308	15.0964
634.201	18.299
637.093	6.38538
639.986	32.9263
642.879	4.6283
645.771	21.2567
648.664	8.21826
651.557	30.8358
654.45	20.7445
657.342	16.5276
660.235	40.8304
663.128	33.8698
666.02	30.4811
668.913	40.5482
671.806	48.1937
674.698	49.2203
677.591	53.6417
680.484	54.0695
683.377	32.2332
686.269	50.6851
689.162	25.1829
692.055	38.7043
694.947	31.7645
697.84	26.7366
700.733	36.188
703.625	21.0742
706.518	24.3007
709.411	27.7289
712.304	35.4703
715.196	50.4635
718.089	34.4705
720.982	6.04968
723.875	31.8191
726.767	19.5399
729.66	39.4447
732.553	38.3593
735.445	9.83826
738.338	29.3711
741.231	19.6976
744.123	53.3787
747.016	24.4944
749.909	7.00183
752.802	44.0629
755.694	22.7653
758.587	81.4925
761.48	46.2095
764.372	14.8765
767.265	9.96606
770.158	17.1758
773.05	23.5013
775.943	25.1054
778.836	3.90308
781.729	11.1608
784.621	4.80225
787.514	5.49829
790.407	21.1725
793.299	30.7478
796.192	9.02734
799.085	15.0591
801.977	15.5714
804.87	2.3197
807.763	1.75549
810.655	25.2213
813.548	8.31763
816.441	21.0089
819.334	1.86255
822.226	29.8133
825.119	31.0364
828.012	10.4706
830.904	6.22485
833.797	6.80444
836.69	11.2391
839.582	24.2251
842.475	32.2234
845.368	39.5654
848.261	11.0666
851.153	9.5072
854.046	11.9343
856.939	23.4248
859.831	18.1008
862.724	7.57532
865.617	32.6348
868.51	46.1201
871.402	19.1649
874.295	54.4231
877.188	26.2424
880.08	43.1296
882.973	50.8597
885.866	30.5422
888.758	3.61206
891.651	14.7828
894.544	56.9032
897.437	36.671
900.329	12.3573
903.222	27.0731
906.115	30.3851
909.007	48.9127
911.9	22.7891
914.793	64.3788
917.685	46.4602
920.578	45.3503
923.471	52.1338
926.364	33.5903
929.256	34.3461
932.149	43.126
935.042	6.2561
937.934	12.5629
940.827	10.259
943.72	25.8339
946.612	8.89844
949.505	28.0269
952.398	1.42554
955.29	10.0394
958.183	17.7053
961.076	16.5013
963.969	15.3674
966.861	11.3651
969.754	24.8232
972.647	44.3419
975.539	58.5883
978.432	85.6571
981.325	99.9274
984.217	154.2
987.11	298.07
990.003	286.717
992.896	280.877
995.788	307.017
998.681	309.805
1001.57	377.656
1004.47	490.141
1007.36	574.688
1010.25	650.332
1013.14	657.762
1016.04	674.283
1018.93	641.873
1021.82	593.386
1024.71	487.459
1027.61	303.243
1030.5	172.055
1033.39	96.5703
1036.29	29.1267
1039.18	9.55737
1042.07	2.86096
1044.96	6.10254
1047.86	69.2549
1050.75	151.106
1053.64	253.799
1056.54	400.424
1059.43	485.611
1062.32	579.806
1065.21	517.588
1068.11	405.099
1071	280.184
1073.89	145.842
1076.78	86.0708
1079.68	33.6498
1082.57	14.2487
1085.46	5.44665
1088.36	5.16821
1091.25	22.5532
1094.14	13.0938
1097.03	22.2342
1099.93	20.7445
1102.82	27.4365
1105.71	28.9828
1108.6	53.9891
1111.5	95.0696
1114.39	114.902
1117.28	127.375
1120.17	131.886
1123.07	110.191
1125.96	88.934
1128.85	82.0134
1131.74	114.275
1134.64	159.509
1137.53	181.07
1140.42	218.126
1143.32	248.25
1146.21	204.797
1149.1	148.626
1151.99	91.486
1154.89	60.5934
1157.78	13.0023
1160.67	2.64514
1163.57	6.58704
1166.46	38.4368
1169.35	46.7925
1172.24	125.245
1175.14	217.958
1178.03	263.792
1180.92	299.765
1183.81	293.146
1186.71	208.864
1189.6	174.913
1192.49	61.2046
1195.38	98.2419
1198.28	81.3195
1201.17	90.3894
1204.06	67.305
1206.96	27.3916
1209.85	71.0211
1212.74	64.3861
1215.63	67.5994
1218.53	57.0778
1221.42	83.9408
1224.31	53.0715
1227.2	52.1093
1230.1	43.8787
1232.99	22.6969
1235.88	13.4297
1238.78	2.40027
1241.67	17.6459
1244.56	2.54358
1247.45	8.58044
1250.35	15.4188
1253.24	27.2914
1256.13	22.136
1259.02	17.4017
1261.92	14.6587
1264.81	26.8606
1267.7	12.5341
1270.6	26.78
1273.49	15.9264
1276.38	57.7754
1279.27	18.0305
1282.17	20.5492
1285.06	45.7557
1287.95	17.681
1290.84	5.08594
1293.74	45.9199
1296.63	19.0735
