Measurement: Raman, 785 nm, unoriented, Raman Data Processed
Mineral: Metazeunerite
Rruff sample: R070314
Ideal chemistry: Cu^2+^(U^6+^O_2_)_2_(As^5+^O_4_)_2_8H_2_O
Locality: Mylar mine, Majuba Hill, Antelope District, Pershing County, Nevada, USA
Source: James Shigley
Description: Green tabular crystals in quartz
Raman shift (cm-1)	intensity
173.088	0
175.981	3.27197
178.873	119.954
181.766	142.183
184.659	252.978
187.552	191.608
190.444	212.576
193.337	122.453
196.23	198.424
199.122	231.7
202.015	178.617
204.908	178.571
207.8	157.847
210.693	192.044
213.586	178.153
216.478	173.844
219.371	243.63
222.264	250.542
225.157	256.131
228.049	218.675
230.942	197.388
233.835	180.15
236.727	153.895
239.62	215.791
242.513	191.05
245.405	177.709
248.298	211.202
251.191	229.254
254.084	179.921
256.976	157.643
259.869	174.913
262.762	189.881
265.654	213.249
268.547	174.336
271.44	125.53
274.332	77.9648
277.225	113.897
280.118	61.1211
283.011	85.9492
285.903	124.062
288.796	96.8433
291.689	79.3794
294.581	85.6724
297.474	7.55078
300.367	21.1729
303.26	31.5181
306.152	106.337
309.045	89.269
311.938	189.531
314.83	209.8
317.723	362.474
320.616	342.749
323.508	306.727
326.401	197.873
329.294	133.848
332.187	104.631
335.079	26.7578
337.972	9.92188
340.865	25.3291
343.757	21.689
346.65	24.4785
349.543	13.6352
352.435	22.938
355.328	1.52002
358.221	1.63477
361.113	17.9268
364.006	36.2627
366.899	12.479
369.792	54.6455
372.684	121.14
375.577	151.765
378.47	98.585
381.362	82.9331
384.255	108.209
387.148	92.0137
390.041	148.389
392.933	168.697
395.826	179.143
398.719	184.803
401.611	123.254
404.504	112.305
407.397	113.09
410.289	31.9463
413.182	48.5239
416.075	48.7505
418.967	31.6567
421.86	66.5845
424.753	68.4019
427.646	67.9985
430.538	129.163
433.431	168.378
436.324	157.24
439.216	244.868
442.109	302.817
445.002	323.231
447.894	411.424
450.787	476.185
453.68	463.389
456.573	588.511
459.465	685.051
462.358	731.232
465.251	792.006
468.143	849.143
471.036	764.946
473.929	602.739
476.822	445.581
479.714	393.021
482.607	249.101
485.5	186.34
488.392	179.261
491.285	134.598
494.178	114.947
497.07	93.3066
499.963	26.3364
502.856	57.0405
505.748	71.3784
508.641	30.9229
511.534	19.0898
514.427	58.6113
517.319	42.1143
520.212	31.3569
523.105	6.08691
525.997	52.0054
528.89	25.8398
531.783	24.9541
534.676	9.15381
537.568	6.65625
540.461	31.7817
543.354	1.78125
546.246	24.2725
549.139	36.4477
552.032	17.7764
554.924	27.1079
557.817	38.9136
560.71	41.4194
563.602	12.7578
566.495	36.2446
569.388	101.376
572.281	103.763
575.173	86.8354
578.066	59.9004
580.959	37.4663
583.851	17.3662
586.744	104.844
589.637	72.1934
592.529	75.082
595.422	71.0044
598.315	93.0571
601.208	93.5264
604.1	164.539
606.993	84.707
609.886	61.6904
612.778	127.917
615.671	78.6987
618.564	76.2998
621.457	96.5679
624.349	68.3652
627.242	84.9121
630.135	99.2485
633.027	88.5215
635.92	85.9199
638.813	78.6807
641.705	110.368
644.598	115.775
647.491	93.4072
650.384	109.495
653.276	83.6089
656.169	106.901
659.062	176.482
661.954	91.1191
664.847	81.5908
667.74	85.7896
670.632	65.9902
673.525	44.9185
676.418	75.6924
679.311	32.0176
682.203	13.2764
685.096	10.9746
687.989	4.30615
690.881	56.749
693.774	16.7783
696.667	21.4668
699.559	17.5352
702.452	2.68945
705.345	12.6855
708.237	55.3843
711.13	31.792
714.023	5.40576
716.916	29.2974
719.808	51.7905
722.701	48.2432
725.594	32.208
728.486	9.51221
731.379	9.54395
734.272	42.3828
737.164	6.81738
740.057	81.0439
742.95	66.8979
745.843	110.868
748.735	197.068
751.628	246.432
754.521	319.958
757.413	427.596
760.306	593.885
763.199	690.725
766.091	954.005
768.984	1126.75
771.877	1260.72
774.77	1439.96
777.662	1661.97
780.555	1836.21
783.448	2133.87
786.34	2476.06
789.233	2909.95
792.126	3432.65
795.019	4086.64
797.911	4792.8
800.804	5424.18
803.697	5931.83
806.589	6434.32
809.482	6620.94
812.375	5975.83
815.267	5363.78
818.16	4986.23
821.053	4718.33
823.946	4417.38
826.838	3569.96
829.731	2557.53
832.624	1698.39
835.516	1038.97
838.409	738.688
841.302	534.017
844.194	384.02
847.087	230.428
849.98	126.302
852.872	76.6079
855.765	16.7969
858.658	79.4404
861.551	17.415
864.443	15.7871
867.336	55.4888
870.229	28.958
873.121	55.7368
876.014	50.1465
878.907	152.016
881.799	263.923
884.692	447.148
887.585	520.304
890.478	622.779
893.37	661.242
896.263	631.681
899.156	563.585
902.048	451.05
904.941	300.541
907.834	297.357
910.726	205.614
913.619	177.547
916.512	131.82
919.405	41.6787
922.297	87.4849
925.19	57.3603
928.083	5.54541
930.975	0.104492
933.868	7.50146
936.761	23.6885
939.654	34.7769
942.546	2.59912
945.439	45.6987
948.332	21.0449
951.224	42.8926
954.117	74.6152
957.01	100.281
959.902	55.8779
962.795	88.9302
965.688	115.534
968.581	142.209
971.473	113.025
974.366	119.957
977.259	98.2856
980.151	152.495
983.044	111.019
985.937	71.2695
988.829	130.56
991.722	81.8101
994.615	6.6333
997.508	123.076
1000.4	66.7519
1003.29	57.9355
1006.19	74.1191
1009.08	89.5898
1011.97	52.4277
1014.86	63.001
1017.76	61.1958
1020.65	102.932
1023.54	101.798
1026.43	85.8525
1029.33	36.9512
1032.22	111.206
1035.11	110.572
1038.01	103.948
1040.9	94.7085
1043.79	44.2647
1046.68	59.0776
1049.58	7.28223
1052.47	57.9868
1055.36	6.38477
1058.25	29.0054
1061.15	53.8594
1064.04	87.0107
1066.93	9.18701
1069.83	7.45508
1072.72	27.0024
1075.61	72.0366
1078.5	51.9522
1081.4	22.0693
1084.29	12.5586
1087.18	50.3276
1090.07	81.5659
1092.97	13.46
1095.86	22.9023
1098.75	15.9873
1101.64	19.5825
1104.54	31.0933
1107.43	27.4658
1110.32	44.022
1113.21	0.898926
1116.11	1.22607
1119	63.0425
1121.89	37.4062
1124.79	20.6436
1127.68	21.4248
1130.57	0.289063
1133.46	8.00293
1136.36	37.8384
1139.25	24.6797
1142.14	1.36523
1145.04	54.687
1147.93	107.73
1150.82	44.5327
1153.71	52.2451
1156.61	67.8398
1159.5	55.4404
1162.39	46.0151
1165.28	50.5752
1168.18	32.2402
1171.07	36.0215
1173.96	26.5693
1176.86	14.8569
1179.75	29.2266
1182.64	2.90918
1185.53	58.937
1188.43	52.1558
1191.32	65.5347
1194.21	47.1099
1197.1	70.0537
1200	62.9995
1202.89	78.5566
1205.78	44.5415
1208.67	26.623
1211.57	28.6523
1214.46	36.2236
1217.35	98.1621
1220.24	65.749
1223.14	57.7798
1226.03	19.8457
1228.92	16.7998
1231.82	1.65137
1234.71	26.0669
