Measurement: Raman, 780 nm, unoriented, Raman Data Processed
Mineral: Metauranocircite II
Rruff sample: R070721
Ideal chemistry: Ba(UO_2_)_2_(PO_4_)_2_6H_2_O
Locality: Streuberg Quarry, Bergen, Falkenstein, Voigtland, Saxony, Germany
Source: James Shigley
Description: Yellow platy crystals
Raman shift (cm-1)	intensity
142.142	0
145.034	1.70068
147.927	0.528809
150.82	3.75
153.713	4.67432
156.605	3.61401
159.498	8.85083
162.391	5.65332
165.283	4.021
168.176	12.6196
171.069	9.19019
173.961	21.3496
176.854	18.5923
179.747	22.8569
182.639	21.6096
185.532	19.6011
188.425	22.2891
191.318	11.802
194.21	7.70239
197.103	3.56445
199.996	0.515625
202.888	2.09399
205.781	1.82886
208.674	5.76514
211.566	13.1377
214.459	9.43848
217.352	12.0049
220.245	10.2017
223.137	11.6453
226.03	15.6392
228.923	16.0591
231.815	18.1623
234.708	19.2722
237.601	20.4111
240.494	18.9883
243.386	19.6206
246.279	14.5225
249.172	13.8569
252.064	18.9402
254.957	19.4021
257.85	14.9634
260.742	18.5159
263.635	15.2493
266.528	21.8464
269.42	21.5794
272.313	26.1675
275.206	21.1997
278.099	24.8084
280.991	22.7961
283.884	26.4343
286.777	18.5754
289.669	19.1797
292.562	16.2229
295.455	16.1626
298.347	17.0415
301.24	13.5967
304.133	5.57007
307.026	7.41235
309.918	11.4375
312.811	1.78174
315.704	0.460449
318.596	1.6272
321.489	2.87402
324.382	2.61743
327.274	8.82568
330.167	0.5625
333.06	0.947021
335.952	1.95825
338.845	7.84619
341.738	15.3772
344.631	22.0342
347.523	30.4763
350.416	54.2871
353.309	63.657
356.201	68.2327
359.094	68.6587
361.987	55.7273
364.88	45.97
367.772	35.1909
370.665	39.0554
373.558	21.623
376.45	18.2454
379.343	13.0286
382.236	14.7146
385.128	14.875
388.021	11.2165
390.914	9.31592
393.807	12.4304
396.699	15.9268
399.592	13.7725
402.485	10.7334
405.377	10.1116
408.27	6.979
411.163	11.4898
414.055	14.4229
416.948	16.2749
419.841	24.8523
422.733	28.4656
425.626	31.6477
428.519	28.0906
431.412	33.1653
434.304	37.1587
437.197	35.0283
440.09	29.0571
442.982	30.1951
445.875	32.104
448.768	34.4145
451.661	32.1973
454.553	32.6611
457.446	36.8486
460.339	42.2627
463.231	44.9338
466.124	45.8982
469.017	39.2
471.909	36.2881
474.802	39.0759
477.695	38.4949
480.587	37.5957
483.48	43.6548
486.373	53.7888
489.266	53.7615
492.158	62.2236
495.051	66.3037
497.944	74.7339
500.836	71.3538
503.729	67.5347
506.622	60.5142
509.514	45.4145
512.407	33.0601
515.3	16.1668
518.193	14.8323
521.085	6.51392
523.978	5.59399
526.871	2.52612
529.763	1.94751
532.656	3.229
535.549	1.74658
538.442	2.16113
541.334	3.79394
544.227	0.016602
547.12	2.45532
550.012	0.216064
552.905	2.43677
555.798	6.09448
558.69	4.04834
561.583	3.15991
564.476	0.949463
567.369	7.22803
570.261	12.3843
573.154	13.6751
576.047	13.9646
578.939	17.7085
581.832	19.7273
584.725	26.731
587.617	39.239
590.51	44.2463
593.403	50.3064
596.295	51.1091
599.188	63.0962
602.081	61.5784
604.973	62.3247
607.866	60.9089
610.759	57.0855
613.652	56.9314
616.544	52.6238
619.437	48.9062
622.33	48.7327
625.222	50.2749
628.115	44.6982
631.008	42.7742
633.9	51.0427
636.793	51.5376
639.686	58.5901
642.579	51.5979
645.471	49.6379
648.364	42.7559
651.257	38.073
654.149	45.3689
657.042	36.4233
659.935	43.2119
662.827	38.4509
665.72	36.6091
668.613	35.0059
671.506	26.7248
674.398	22.2119
677.291	22.0469
680.184	14.189
683.076	15.8284
685.969	11.2839
688.862	8.16406
691.755	4.50903
694.647	3.27978
697.54	3.14453
700.433	0.336914
703.325	1.4353
706.218	1.8645
709.111	1.57788
712.003	3.77783
714.896	4.6145
717.789	2.35376
720.682	0.859375
723.574	0.972412
726.467	1.81763
729.36	2.58618
732.252	5.03955
735.145	2.57666
738.038	6.13721
740.93	1.53882
743.823	0.013794
746.716	2.25781
749.609	3.48608
752.501	6.16345
755.394	3.54443
758.287	6.47302
761.179	5.62293
764.072	12.1199
766.965	5.51587
769.857	6.36877
772.75	9.61829
775.643	9.30408
778.535	14.4036
781.428	19.213
784.321	25.8401
787.214	35.0344
790.106	59.3138
792.999	86.0089
795.892	107.72
798.784	145.93
801.677	167.789
804.57	192.233
807.462	216.594
810.355	237.112
813.248	259.328
816.141	282.077
819.033	291.853
821.926	293.527
824.819	292.991
827.711	257.603
830.604	188.579
833.497	110.856
836.389	69.9863
839.282	58.8888
842.175	59.0117
845.068	57.7615
847.96	66.3092
850.853	82.8499
853.746	101.119
856.638	110.818
859.531	106.653
862.424	89.2145
865.317	68.3595
868.209	41.9487
871.102	27.2935
873.995	14.6802
876.887	10.2119
879.78	5.23608
882.673	1.70019
885.565	6.30798
888.458	0.13916
891.351	1.01856
894.243	0.10498
897.136	1.0321
900.029	3.26306
902.922	0.419189
905.814	1.93274
908.707	0.412231
911.6	5.32568
914.492	3.52234
917.385	3.04748
920.278	1.25452
923.17	3.58435
926.063	3.3761
928.956	2.67017
931.848	1.83508
934.741	0.176514
937.634	5.24707
940.527	3.65393
943.419	12.3163
946.312	15.5321
949.205	22.4125
952.097	27.1268
954.99	38.0593
957.883	59.7079
960.775	86.6276
963.668	120.974
966.561	144.576
969.454	162.17
972.346	165.756
975.239	154.952
978.132	152.434
981.024	156.406
983.917	168.04
986.81	197.417
989.702	218.637
992.595	222.533
995.488	236.435
998.381	228.865
1001.27	204.763
1004.17	189.821
1007.06	177.899
1009.95	151.929
1012.84	116.103
1015.74	92.3412
1018.63	75.1602
1021.52	63.4834
1024.41	49.206
1027.31	49.2804
1030.2	42.6638
1033.09	35.7078
1035.99	35.6376
1038.88	37.2415
1041.77	27.5861
1044.66	22.6647
1047.56	14.0408
1050.45	9.58472
1053.34	3.7301
1056.23	3.90796
1059.13	2.0531
1062.02	4.45386
1064.91	0.735474
1067.81	1.70569
1070.7	1.88794
1073.59	1.90344
1076.48	2.76379
1079.38	3.90112
1082.27	8.45923
1085.16	15.6085
1088.05	15.5664
1090.95	20.8422
1093.84	24.4724
1096.73	24.2139
1099.62	38.1448
1102.52	41.2521
1105.41	50.2134
1108.3	59.9244
1111.2	65.2852
1114.09	71.1685
1116.98	57.1503
1119.87	36.4343
1122.77	27.7625
1125.66	15.3838
1128.55	5.33313
1131.44	2.51782
1134.34	1.68005
1137.23	3.42981
1140.12	2.19568
1143.02	3.35998
1145.91	7.72082
1148.8	14.1096
1151.69	9.43982
1154.59	15.3076
1157.48	14.6916
1160.37	17.0419
1163.26	19.4117
1166.16	7.82629
1169.05	12.9081
1171.94	5.42383
1174.84	12.3804
1177.73	10.747
1180.62	15.4252
1183.51	13.9839
1186.41	13.3429
1189.3	9.40869
1192.19	3.17456
1195.08	0.260376
1197.98	3.01489
1200.87	4.06457
1203.76	4.83081
1206.65	3.31226
1209.55	3.95972
1212.44	8.41992
1215.33	15.5173
1218.23	16.7852
1221.12	15.969
1224.01	16.0085
1226.9	21.5393
1229.8	26.2959
1232.69	24.8438
1235.58	31.9416
1238.47	31.7869
1241.37	28.6502
1244.26	31.4326
1247.15	29.1887
1250.05	32.967
1252.94	32.1489
1255.83	32.3186
1258.72	30.7214
1261.62	23.023
1264.51	19.6587
1267.4	19.9282
1270.29	13.9944
1273.19	9.15015
1276.08	6.23853
1278.97	6.52588
1281.87	0.034912
1284.76	5.45532
