Measurement: Raman, 785 nm, unoriented, Raman Data Processed
Mineral: Metastibnite
Rruff sample: R060755
Ideal chemistry: Sb^3+^_2_S^2-^_3_
Locality: San Jose mine, Oruro, Bolivia
Source: Michael Scott
Description: Dark red semi-metallic botryoidal groups
Raman shift (cm-1)	intensity
183.239	0
186.131	772.188
189.024	1578.88
191.917	2706.91
194.809	3956.19
197.702	5784.53
200.595	7228.38
203.488	8423.47
206.38	8163.78
209.273	8659.41
212.166	11502.7
215.058	13924.5
217.951	18775.3
220.844	21360.1
223.736	24466.1
226.629	27051.9
229.522	31150.4
232.415	36006.2
235.307	41850.7
238.2	47261.4
241.093	52619
243.985	57024.7
246.878	61162.7
249.771	66966.2
252.663	73606.3
255.556	80320.3
258.449	86393.8
261.342	91224.8
264.234	95378.6
267.127	98718.2
270.02	99853.7
272.912	102123
275.805	104895
278.698	109194
281.591	113401
284.483	115446
287.376	116539
290.269	114302
293.161	112556
296.054	111214
298.947	113404
301.839	115663
304.732	117941
307.625	116196
310.517	111352
313.41	104320
316.303	98030.9
319.196	92711.2
322.088	88027.7
324.981	84916.9
327.874	81423.1
330.766	76021.3
333.659	68989.4
336.552	61442.7
339.444	54076.5
342.337	48671.6
345.23	44154.8
348.123	39008.4
351.015	34005.7
353.908	28637.3
356.801	21871.8
359.693	15236
362.586	10736.2
365.479	8946.66
368.371	9272.28
371.264	10117.9
374.157	10804.4
377.05	9969.81
379.942	8719.66
382.835	6292.12
385.728	5251.22
388.62	4936.16
391.513	6625.72
394.406	8400.03
397.298	8713.56
400.191	8499.38
403.084	6631.09
405.977	5461.19
408.869	4335.97
411.762	5199.84
414.655	6847.25
417.547	8638.62
420.44	8804.47
423.333	8002.34
426.225	7962.19
429.118	7113.97
432.011	6145.12
434.904	6346.75
437.796	6531.78
440.689	7435.72
443.582	8158.09
446.474	8310.22
449.367	7612.19
452.26	6510.44
455.152	5607.75
458.045	5485.25
460.938	6775
463.831	8385.25
466.723	8289.88
469.616	7922.38
472.509	7216.03
475.401	6170.38
478.294	5423.09
481.187	5877.91
484.079	6538.75
486.972	7402
489.865	9458.62
492.758	9386.16
495.65	8817.66
498.543	7679.78
501.436	7737.31
504.328	7690
507.221	7901.56
510.114	8852.97
513.006	9285.88
515.899	9698.41
518.792	9648.03
521.685	9836.53
524.577	9835.25
527.47	10648.9
530.363	9295.81
533.255	9880.62
536.148	9868.53
539.041	10420.8
541.933	10342.4
544.826	9665.59
547.719	9291.62
550.612	8596.84
553.504	9302.25
556.397	9856.47
559.29	10481.3
562.182	10755
565.075	10262.5
567.968	9900.09
570.86	8406.75
573.753	8641.53
576.646	8900.66
579.539	9655.66
582.431	10111.2
585.324	9687.12
588.217	9863.03
591.109	9516.97
594.002	8791.53
596.895	9265.41
599.787	9941.84
602.68	9651.59
605.573	9755.97
608.466	9490.72
611.358	9769.59
614.251	9943.91
617.144	9632
620.036	9445.44
622.929	9838.19
625.822	10045.4
628.714	9551
631.607	10170.9
634.5	9066.75
637.393	9610.41
640.285	10032.7
643.178	10419.8
646.071	9668.12
648.963	8727.47
651.856	9700.16
654.749	9963.72
657.641	10768.2
660.534	10446.4
663.427	9003.81
666.32	8901.19
669.212	9294.28
672.105	9838.22
674.998	9876.91
677.89	9819.41
680.783	9435.47
683.676	8907.75
686.568	8957.09
689.461	8517.31
692.354	9565.78
695.247	10267
698.139	10596.9
701.032	9721.81
703.925	8713.81
706.817	7278.62
709.71	7948.59
712.603	7988.12
715.495	8940.12
718.388	8785
721.281	9308.69
724.174	8580.41
727.066	7897.59
729.959	7222.53
732.852	6894.19
735.744	7332.12
738.637	7073.16
741.53	7150.66
744.422	7260.97
747.315	7368.62
750.208	7260.84
753.101	6769.22
755.993	6127.81
758.886	5551.81
761.779	5496.59
764.671	6239.53
767.564	6679.66
770.457	6801.84
773.349	6065.28
776.242	4790.44
779.135	4266.59
782.028	4603.53
784.92	5218.34
787.813	5711.62
790.706	6146.28
793.598	5622.78
796.491	4346.19
799.384	4077.62
802.277	3852.19
805.169	3937.38
808.062	4758.69
810.955	4289.88
813.847	4519.03
816.74	4181.69
819.633	4535.97
822.526	3306.41
825.418	3263.16
828.311	3776.47
831.204	4214.81
834.096	4312.16
836.989	4874.19
839.882	4387.97
842.774	4228.03
845.667	3983.06
848.56	4799.78
851.453	4786.78
854.345	4239.28
857.238	3971.31
860.131	3808.06
863.023	3882.19
865.916	2830.94
868.809	2769.56
871.701	1641.38
874.594	2606.84
877.487	3291.75
880.38	3758.59
883.272	4019.28
886.165	3629.41
889.058	3453.69
891.95	3212.62
894.843	3103.41
897.736	2674.81
900.628	2644.84
903.521	3098.59
906.414	3593.34
909.307	3582.91
912.199	3126.25
915.092	3394.78
917.985	2877.97
920.877	2804.62
923.77	1835.84
926.663	2653.44
929.555	3153.22
932.448	3401.16
935.341	3819.78
938.234	2756.06
941.126	2262.91
944.019	2633.62
946.912	2058.97
949.804	2613.16
952.697	2882.62
955.59	3264.91
958.482	2712.91
961.375	2967.03
964.268	2859.81
967.161	2884.88
970.053	2541.47
972.946	2967.06
975.839	3260.5
978.731	2714.16
981.624	3015.38
984.517	2150.47
987.409	1817.47
990.302	1264.31
993.195	683.406
996.088	1111.94
998.98	2325.88
1001.87	3141.91
1004.77	2864.53
1007.66	2172.5
1010.55	1853.38
1013.44	2188.84
1016.34	2731.75
1019.23	2071.09
1022.12	2352.41
1025.02	2054.16
1027.91	2160.62
1030.8	2226.97
1033.69	2457.09
1036.59	2221.56
1039.48	1931.44
1042.37	1901.62
1045.26	1754.19
1048.16	1263.06
1051.05	1582.16
1053.94	1388.28
1056.83	2250.31
1059.73	2305.53
1062.62	1505.03
1065.51	867.344
1068.4	1199.03
1071.3	1620.75
1074.19	2055.59
1077.08	2150.72
1079.98	1459.94
1082.87	1294.75
1085.76	1078.19
1088.65	1235.22
1091.55	1555
1094.44	2613.81
1097.33	2463.66
1100.22	2188.72
1103.12	1638.16
1106.01	421.406
1108.9	1353.25
1111.8	1580.09
1114.69	2706.62
1117.58	2177.84
1120.47	2382.19
1123.37	1940.31
1126.26	1791.94
1129.15	2164.47
1132.04	964.969
1134.94	763.156
1137.83	939.344
1140.72	928.531
1143.62	817.969
1146.51	1173.25
1149.4	1217.19
1152.29	530.344
1155.19	405.75
1158.08	1160.03
1160.97	1482.78
1163.86	1092.09
1166.76	1261.84
1169.65	747.812
1172.54	954.312
1175.43	431.5
1178.33	235.75
1181.22	418.562
1184.11	361.469
1187.01	277.625
1189.9	479.031
1192.79	41.438
1195.68	754.625
1198.58	968.719
1201.47	1379.34
1204.36	367.188
1207.26	20.094
1210.15	226
1213.04	447.469
1215.93	906.594
1218.83	1310.16
1221.72	860.531
1224.61	968.562
1227.5	914.562
1230.4	295.531
1233.29	423.312
1236.18	495.219
1239.07	855.75
1241.97	548.031
1244.86	558.75
1247.75	194.656
1250.64	135.938
1253.54	414.625
1256.43	385.438
1259.32	106.781
1262.22	582.219
1265.11	768.469
1268	940.75
1270.89	610.938
