Measurement: Raman, 785 nm, unoriented, Raman Data Processed
Mineral: Metavoltine
Rruff sample: R060835
Ideal chemistry: K_2_Na_6_Fe^2+^Fe^3+^_6_O_2_(S^6+^O_4_)_12_18H_2_O
Locality: Cetine mine, Siena Province, Tuscany, Italy
Source: Bob Jenkins
Description: Yellowish-brown granular aggregate
Raman shift (cm-1)	intensity
192.881	0
195.773	54.0069
198.666	62.9635
201.559	50.9258
204.452	15.8682
207.344	22.2618
210.237	14.206
213.13	6.85464
216.022	33.786
218.915	81.5863
221.808	62.0771
224.7	93.8361
227.593	95.7073
230.486	87.9339
233.379	135.092
236.271	106.981
239.164	162.236
242.057	163.896
244.949	178.797
247.842	248.418
250.735	258.428
253.627	282.082
256.52	311.28
259.413	417.597
262.305	599.919
265.198	768.818
268.091	854.112
270.984	799.856
273.876	572.411
276.769	363.734
279.662	207.642
282.554	154.229
285.447	71.5561
288.34	32.5962
291.233	14.4313
294.125	2.77936
297.018	39.0365
299.911	4.75345
302.803	16.3247
305.696	39.1153
308.589	10.0068
311.481	7.64038
314.374	8.05814
317.267	24.8535
320.159	22.8263
323.052	0.781067
325.945	15.2132
328.838	12.0783
331.73	22.4829
334.623	23.6491
337.516	4.39282
340.408	39.355
343.301	14.3415
346.194	12.8533
349.087	21.4048
351.979	9.74911
354.872	20.1577
357.765	11.4563
360.657	39.8739
363.55	28.4427
366.443	29.7352
369.335	4.15536
372.228	14.7744
375.121	11.5617
378.014	26.4793
380.906	29.1295
383.799	32.2827
386.692	27.0225
389.584	1.72333
392.477	5.66629
395.37	1.76312
398.262	1.36679
401.155	2.28043
404.048	6.95532
406.941	13.6822
409.833	2.94638
412.726	6.80203
415.619	3.8794
418.511	19.2071
421.404	0.981415
424.297	35.1652
427.19	18.488
430.082	41.6442
432.975	79.536
435.868	113.225
438.76	185.26
441.653	202.738
444.546	239.005
447.438	222.617
450.331	220.001
453.224	157.48
456.116	152.016
459.009	53.5528
461.902	39.1198
464.795	36.1087
467.687	39.5261
470.58	34.392
473.473	28.2866
476.365	47.5251
479.258	42.7744
482.151	44.2141
485.043	99.148
487.936	77.3587
490.829	116.172
493.722	112.906
496.614	152.844
499.507	123.709
502.4	108.933
505.292	101.692
508.185	121.184
511.078	115.642
513.971	69.631
516.863	50.2676
519.756	43.2492
522.649	30.2886
525.541	26.7195
528.434	11.7539
531.327	11.1656
534.219	8.79227
537.112	35.0981
540.005	26.4662
542.898	68.5778
545.79	85.0148
548.683	96.357
551.576	89.9388
554.468	122.287
557.361	111.823
560.254	115.44
563.146	102.405
566.039	95.6009
568.932	84.2823
571.824	92.8348
574.717	94.3966
577.61	75.8608
580.503	74.4224
583.395	21.4587
586.288	42.4404
589.181	65.0904
592.073	46.6929
594.966	46.0214
597.859	35.6697
600.751	51.762
603.644	66.5717
606.537	58.9923
609.43	67.3652
612.322	99.8935
615.215	78.4013
618.108	77.2743
621	49.6251
623.893	73.7257
626.786	40.2933
629.678	29.9808
632.571	25.384
635.464	8.12616
638.357	32.8603
641.249	17.0195
644.142	2.84656
647.035	54.4504
649.927	22.5942
652.82	33.8428
655.713	50.3565
658.606	37.3222
661.498	48.0453
664.391	0.317566
667.284	64.88
670.176	40.9585
673.069	52.8311
675.962	28.3389
678.854	33.8034
681.747	25.7926
684.64	27.8372
687.533	31.5395
690.425	27.622
693.318	10.9001
696.211	60.9359
699.103	42.4729
701.996	39.6538
704.889	26.9172
707.781	27.5147
710.674	22.9019
713.567	3.48691
716.46	46.2789
719.352	17.4546
722.245	36.4977
725.138	36.2013
728.03	16.6478
730.923	54.3226
733.816	33.5737
736.708	36.1733
739.601	50.3201
742.494	25.9269
745.386	14.2192
748.279	72.0882
751.172	62.4417
754.065	23.5258
756.957	12.0219
759.85	38.703
762.743	59.928
765.635	51.451
768.528	48.8033
771.421	53.9044
774.313	37.272
777.206	12.6919
780.099	15.2315
782.992	55.5276
785.884	25.3617
788.777	3.32394
791.67	55.3124
794.562	35.9445
797.455	21.8339
800.348	11.3943
803.24	3.53497
806.133	38.4954
809.026	9.49353
811.919	31.6431
814.811	46.5502
817.704	29.57
820.597	56.4078
823.489	4.33609
826.382	45.5468
829.275	58.1504
832.168	81.0208
835.06	44.9713
837.953	42.8027
840.846	32.5965
843.738	42.1708
846.631	47.7696
849.524	22.5088
852.416	37.0245
855.309	46.818
858.202	63.337
861.095	58.1953
863.987	26.1318
866.88	9.98932
869.773	28.4604
872.665	11.9602
875.558	24.2184
878.451	50.727
881.343	35.729
884.236	67.27
887.129	38.6628
890.021	12.9336
892.914	65.8333
895.807	60.8554
898.7	2.46149
901.592	2.99268
904.485	58.1249
907.378	19.0593
910.27	20.458
913.163	14.967
916.056	7.00342
918.949	25.9796
921.841	15.1533
924.734	5.88187
927.627	55.417
930.519	20.9481
933.412	71.4461
936.305	40.8593
939.197	18.0666
942.09	34.5993
944.983	8.96786
947.876	15.7109
950.768	14.9142
953.661	4.44373
956.554	19.8809
959.446	15.9791
962.339	20.8524
965.232	51.277
968.125	28.0641
971.017	50.7006
973.91	59.8782
976.803	118.938
979.695	114.057
982.588	101.516
985.481	118.829
988.373	98.1108
991.266	91.5673
994.159	91.4817
997.052	145.982
999.944	147.442
1002.84	216.463
1005.73	358.998
1008.62	551.58
1011.51	520.921
1014.41	323.771
1017.3	189.422
1020.19	123.326
1023.09	33.8496
1025.98	2.94324
1028.87	8.60223
1031.76	13.8478
1034.66	1.21332
1037.55	25.2473
1040.44	56.7056
1043.34	39.3507
1046.23	54.6501
1049.12	91.4665
1052.01	108.608
1054.91	163.903
1057.8	137.285
1060.69	88.9672
1063.58	93.5122
1066.48	57.1128
1069.37	63.9661
1072.26	12.2133
1075.15	31.9255
1078.05	27.5579
1080.94	27.1753
1083.83	37.8344
1086.72	6.38025
1089.62	3.91498
1092.51	2.05048
1095.4	38.0609
1098.3	12.8071
1101.19	12.3915
1104.08	0.542603
1106.97	45.8223
1109.87	43.9406
1112.76	103.499
1115.65	98.4636
1118.55	103.289
1121.44	72.2163
1124.33	64.3356
1127.22	57.8126
1130.12	7.00922
1133.01	64.6221
1135.9	64.328
1138.79	31.4836
1141.69	77.4935
1144.58	18.8131
1147.47	83.4158
1150.37	19.5211
1153.26	30.0176
1156.15	32.4032
1159.04	9.83752
1161.93	39.4097
1164.83	32.7871
1167.72	60.3325
1170.61	76.5218
1173.51	101.408
1176.4	168.095
1179.29	132.267
1182.18	94.1144
1185.08	67.6845
1187.97	59.13
1190.86	34.7631
1193.76	43.0535
1196.65	64.1302
1199.54	34.1931
1202.43	45.0727
1205.33	25.7817
1208.22	16.0736
1211.11	38.1261
1214	73.3992
1216.9	87.9202
1219.79	64.2326
1222.68	72.6649
1225.58	65.1169
1228.47	57.3539
1231.36	34.5034
1234.25	69.1862
1237.15	0.743164
1240.04	20.7967
1242.93	72.897
1245.82	108.911
1248.72	83.0797
1251.61	28.6138
1254.5	44.4232
1257.39	50.5166
1260.29	23.2927
1263.18	4.99756
1266.07	46.7978
1268.96	26.2634
1271.86	0
