Measurement: Raman, 780 nm, unoriented, Raman Data Processed
Mineral: Metatorbernite
Rruff sample: R120014
Ideal chemistry: Cu^2+^(U^6+^O_2_)_2_(PO_4_)_2_8H_2_O
Locality: Governor's Lake pegmatite, Halifax County, Nova Scotia, Canada
Source: Donald Doell
Description: Green tabular crystals associated with anatase R120013
Raman shift (cm-1)	intensity
103.174	0
106.549	0.473267
109.924	0.426346
113.299	0.613365
116.674	0.976509
120.048	1.64167
123.423	4.12805
126.798	5.33027
130.173	6.72395
133.548	8.74492
136.923	13.8622
140.297	21.4934
143.672	21.003
147.047	14.5452
150.422	8.85502
153.797	5.07661
157.171	0.700554
160.546	0.893211
163.921	0.053009
167.296	0.249962
170.671	0.445267
174.046	0.602524
177.42	3.32345
180.795	5.17255
184.17	7.9583
187.545	11.9082
190.92	16.7381
194.294	19.0568
197.669	9.8157
201.044	3.76084
204.419	1.97867
207.794	2.37907
211.168	2.52317
214.543	3.29194
217.918	4.68698
221.293	4.08579
224.668	2.93154
228.042	1.74084
231.417	0.282272
234.792	0.203735
238.167	1.26754
241.542	0.770515
244.917	1.38847
248.291	2.24971
251.666	1.05051
255.041	0.889465
258.416	0.100975
261.791	0.060783
265.166	1.14029
268.54	1.65222
271.915	1.90047
275.29	1.15371
278.665	2.67883
282.04	2.44835
285.414	2.94843
288.789	2.61798
292.164	2.315
295.539	2.03754
298.914	2.3734
302.288	0.893135
305.663	0.580406
309.038	1.19112
312.413	1.27529
315.788	0.459145
319.163	0.836678
322.537	0.238678
325.912	0.287369
329.287	0.293465
332.662	0.385986
336.037	0.059937
339.411	0.677521
342.786	0.607079
346.161	0.522858
349.536	1.40397
352.911	1.74423
356.286	2.42715
359.66	1.71658
363.035	2.60747
366.41	0.613556
369.785	1.76314
373.16	1.16803
376.534	0.261879
379.909	1.24148
383.284	1.56546
386.659	0.866264
390.034	1.30621
393.409	1.9947
396.783	2.27069
400.158	2.09552
403.533	3.12935
406.908	3.39848
410.283	2.25715
413.658	0.532249
417.032	0.141266
420.407	0.185883
423.782	0.508034
427.157	1.72466
430.532	1.2598
433.906	2.5351
437.281	2.42876
440.656	1.82461
444.031	2.83553
447.406	0.830788
450.781	0.70446
454.155	1.02221
457.53	0.437988
460.905	0.141281
464.28	1.06624
467.654	0.835991
471.029	0.263214
474.404	1.06214
477.779	0.523819
481.154	0.413727
484.529	1.10346
487.903	1.26264
491.278	3.61976
494.653	2.67297
498.028	2.18446
501.403	3.35621
504.777	3.78616
508.152	2.16001
511.527	2.47824
514.902	1.55376
518.277	1.68159
521.652	1.05772
525.026	0.854225
528.401	0.005829
531.776	0.047119
535.151	0.713219
538.526	0.356033
541.9	0.684387
545.275	0.733376
548.65	0.026802
552.025	0.527504
555.4	0.835037
558.775	0.367348
562.149	0.545113
565.524	0.373077
568.899	0.017685
572.274	0.263733
575.649	0.857498
579.024	0.27491
582.398	1.38245
585.773	0.90464
589.148	0.810768
592.523	1.03247
595.898	1.58564
599.272	2.06413
602.647	1.96291
606.022	3.11299
609.397	2.33071
612.772	2.02375
616.146	2.74989
619.521	2.66612
622.896	1.74381
626.271	2.55037
629.646	2.66283
633.021	3.24088
636.395	2.34376
639.77	2.22233
643.145	2.65153
646.52	2.57536
649.895	2.14844
653.269	1.91288
656.644	1.75049
660.019	1.34826
663.394	1.76434
666.769	1.39212
670.144	1.60851
673.518	1.73653
676.893	1.24687
680.268	0.113022
683.643	0.142258
687.018	1.90086
690.393	0.977257
693.767	1.09401
697.142	0.45208
700.517	0.574936
703.892	0.429298
707.266	1.37244
710.641	1.09788
714.016	0.388752
717.391	0.732273
720.766	0.416222
724.141	0.418499
727.515	0.895672
730.89	1.24196
734.265	1.05125
737.64	0.123989
741.015	0.491615
744.389	0.166096
747.764	0.787228
751.139	0.127914
754.514	0.23679
757.889	2.43101
761.264	0.061939
764.638	0.836056
768.013	0.425667
771.388	0.108719
774.763	0.358055
778.138	1.1698
781.513	0.782242
784.887	0.332344
788.262	0.455219
791.637	1.99785
795.012	2.32328
798.387	4.34422
801.761	3.47017
805.136	5.86172
808.511	7.71304
811.886	12.9199
815.261	17.356
818.635	24.9591
822.01	40.2828
825.385	54.6111
828.76	26.8577
832.135	10.1818
835.51	4.71401
838.884	4.07785
842.259	3.20519
845.634	2.37732
849.009	3.62407
852.384	5.16418
855.759	4.46388
859.133	3.48446
862.508	2.96325
865.883	1.89373
869.258	0.275894
872.633	0.90871
876.007	0.30344
879.382	0.532455
882.757	0.411579
886.132	1.26634
889.507	1.17199
892.881	0.877201
896.256	1.0078
899.631	0.972221
903.006	0.321011
906.381	1.60115
909.756	1.01036
913.13	0.023571
916.505	0.331593
919.88	0.808842
923.255	0.132332
926.63	0.217392
930.005	0.706387
933.379	0.078384
936.754	0.863682
940.129	0.213093
943.504	0.51963
946.879	0.469315
950.253	1.00983
953.628	1.52182
957.003	2.19267
960.378	1.86946
963.753	1.845
967.127	2.48614
970.502	4.50987
973.877	5.90518
977.252	9.26952
980.627	12.2945
984.001	20.645
987.376	29.8904
990.751	30.2733
994.126	29.1866
997.501	23.4462
1000.88	15.1412
1004.25	10.6855
1007.62	6.10327
1011	3.67084
1014.38	3.06259
1017.75	3.27716
1021.12	2.10489
1024.5	1.84419
1027.87	1.77666
1031.25	2.648
1034.62	1.74798
1038	1.38647
1041.37	1.51707
1044.75	1.09608
1048.12	0.711422
1051.5	0.780231
1054.87	0.246147
1058.25	0.475986
1061.62	0.331097
1065	0.203815
1068.37	0.157307
1071.75	1.06805
1075.12	0.274883
1078.5	0.825531
1081.87	0.271431
1085.25	0.68811
1088.62	0.672234
1092	0.931046
1095.37	1.05931
1098.74	0.948433
1102.12	1.3624
1105.49	1.15617
1108.87	1.54964
1112.24	0.819637
1115.62	1.69712
1118.99	1.22147
1122.37	0.874947
1125.74	0.502151
1129.12	0.617435
1132.49	0.56469
1135.87	1.23321
1139.24	1.82698
1142.62	1.88701
1145.99	0.679226
1149.37	0.489124
1152.74	0.250336
1156.12	0.269901
1159.49	0.398869
1162.87	1.29133
1166.24	0.457592
1169.62	0.115612
1172.99	0.499302
1176.37	0.574707
1179.74	0.119995
1183.12	0.541973
1186.49	0.532318
1189.87	0.030457
1193.24	0.808296
1196.62	0.400448
1199.99	0.365276
1203.37	0.227577
1206.74	1.0537
1210.11	1.02437
1213.49	0.471642
1216.86	0.912537
1220.24	1.31049
1223.61	0.562363
1226.99	1.9302
1230.36	0.423313
1233.74	0.826416
1237.11	1.44822
1240.49	1.02074
1243.86	1.05586
1247.24	1.30306
1250.61	0.419983
1253.99	1.65504
1257.36	0.978058
1260.74	0.690918
1264.11	0.968521
1267.49	0.434937
1270.86	1.47319
1274.24	1.36974
1277.61	1.84975
1280.98	0.414742
1284.36	0.578857
