Measurement: Raman, 785 nm, unoriented, Raman Data Processed
Mineral: Metavoltine
Rruff sample: R070542
Ideal chemistry: K_2_Na_6_Fe^2+^Fe^3+^_6_O_2_(S^6+^O_4_)_12_18H_2_O
Locality: Vulcano Island. Lipari Islands, Messina Province, Sicily, Italy
Source: James Shigley
Description: Dark yellow granular crystals
Raman shift (cm-1)	intensity
159.969	0
162.862	42.4086
165.755	28.528
168.647	36.4896
171.54	2.71936
174.433	11.6136
177.326	7.42761
180.218	18.4849
183.111	76.3438
186.004	122.201
188.896	151.619
191.789	146.866
194.682	129.205
197.574	142.898
200.467	72.3975
203.36	87.9607
206.252	107.721
209.145	117.993
212.038	122.543
214.931	127.037
217.823	153.745
220.716	139.217
223.609	188.954
226.501	209.433
229.394	244.485
232.287	287.708
235.179	298.063
238.072	329.805
240.965	376.446
243.858	413.503
246.75	467.037
249.643	546.612
252.536	604.087
255.428	704.235
258.321	806.384
261.214	922.145
264.106	1133.65
266.999	1242.16
269.892	1226.5
272.784	993.277
275.677	737.961
278.57	479.206
281.463	309.641
284.355	217.92
287.248	155.53
290.141	122.494
293.033	73.8079
295.926	62.2427
298.819	64.4124
301.712	49.7306
304.604	60.432
307.497	15.4033
310.39	20.4811
313.282	24.386
316.175	11.3448
319.068	24.7087
321.96	1.74866
324.853	13.085
327.746	6.48633
330.639	20.0637
333.531	15.2413
336.424	2.16931
339.317	37.4392
342.209	12.9702
345.102	36.7642
347.995	46.8824
350.887	24.1324
353.78	31.6122
356.673	17.4916
359.565	40.3362
362.458	15.183
365.351	2.42297
368.244	21.0056
371.136	10.2198
374.029	18.7792
376.922	0.148926
379.814	31.7197
382.707	4.83606
385.6	0.767334
388.493	17.6245
391.385	7.78003
394.278	9.83655
397.171	6.57251
400.063	5.75439
402.956	11.2452
405.849	8.97803
408.741	8.82153
411.634	19.2074
414.527	48.0852
417.42	25.3798
420.312	62.832
423.205	72.3386
426.098	85.9286
428.99	120.508
431.883	245.762
434.776	249.19
437.668	281.448
440.561	315.663
443.454	327.044
446.346	365.109
449.239	350.179
452.132	336.235
455.025	199.153
457.917	119.814
460.81	107.433
463.703	85.6836
466.595	99.1951
469.488	86.9992
472.381	110.122
475.273	106.306
478.166	148.61
481.059	145.654
483.952	142.242
486.844	140.316
489.737	172.434
492.63	175.507
495.522	170.5
498.415	202.328
501.308	203.103
504.2	205.848
507.093	196.664
509.986	161.352
512.879	117.961
515.771	41.9927
518.664	63.9654
521.557	17.1494
524.449	11.793
527.342	8.66785
530.235	13.217
533.127	15.545
536.02	41.3706
538.913	79.7598
541.806	73.4703
544.698	138.533
547.591	160.311
550.484	187.526
553.376	170.115
556.269	185.618
559.162	196.055
562.054	157.835
564.947	152.471
567.84	152.19
570.732	122.519
573.625	83.3991
576.518	111.366
579.411	79.8218
582.303	40.7604
585.196	63.8279
588.089	46.169
590.981	42.5253
593.874	63.637
596.767	74.9438
599.659	68.2362
602.552	62.8428
605.445	47.2009
608.338	87.2518
611.23	72.895
614.123	63.8043
617.016	14.1245
619.908	32.2872
622.801	6.90912
625.694	17.0855
628.587	4.97168
631.479	0.274536
634.372	12.5715
637.264	17.397
640.157	22.5071
643.05	14.6525
645.943	5.526
648.835	5.29431
651.728	0.048218
654.621	6.79767
657.513	20.8729
660.406	60.7441
663.299	46.4238
666.192	20.1161
669.084	37.7674
671.977	40.1172
674.87	28.1753
677.762	30.4339
680.655	33.0186
683.548	21.1511
686.44	18.3892
689.333	9.50909
692.226	27.3537
695.119	18.0028
698.011	16.3732
700.904	11.1934
703.797	6.34656
706.689	16.8973
709.582	10.3692
712.475	18.829
715.367	30.1502
718.26	27.7256
721.153	19.9785
724.045	31.306
726.938	10.8601
729.831	32.5988
732.724	15.2234
735.616	35.8665
738.509	29.016
741.402	2.95306
744.294	5.28345
747.187	27.6428
750.08	4.04883
752.972	22.4115
755.865	13.064
758.758	26.878
761.651	40.5847
764.543	44.7443
767.436	24.7819
770.329	31.9639
773.221	42.8104
776.114	11.4755
779.007	0.688049
781.899	29.8881
784.792	43.6146
787.685	19.7669
790.578	8.7666
793.47	0.244812
796.363	29.4089
799.256	33.675
802.148	37.0968
805.041	14.8154
807.934	13.2989
810.827	14.2347
813.719	1.60901
816.612	3.513
819.505	31.0941
822.397	14.0408
825.29	20.2145
828.183	8.12659
831.075	23.8488
833.968	21.9688
836.861	18.1906
839.753	18.481
842.646	21.8309
845.539	28.2114
848.432	39.5534
851.324	11.6304
854.217	0.361694
857.11	31.136
860.002	0.917236
862.895	24.2567
865.788	19.043
868.68	12.6256
871.573	13.098
874.466	6.27179
877.359	36.9038
880.251	5.56158
883.144	25.5649
886.037	21.7684
888.929	11.4687
891.822	18.4917
894.715	45.186
897.607	19.9973
900.5	33.8102
903.393	41.6641
906.285	49.1965
909.178	58.7415
912.071	67.6711
914.964	37.1946
917.856	17.499
920.749	13.1394
923.642	21.2314
926.534	7.13977
929.427	37.0735
932.32	26.0065
935.212	0.447205
938.105	4.90894
940.998	28.333
943.891	3.92664
946.783	1.48187
949.676	9.36896
952.569	3.26526
955.461	0.339661
958.354	14.4695
961.247	23.9768
964.139	42.1934
967.032	40.0778
969.925	23.3686
972.818	39.169
975.71	47.6487
978.603	81.2192
981.496	95.1047
984.388	101.094
987.281	140.841
990.174	133.152
993.067	159.759
995.959	195.974
998.852	205.791
1001.75	270.531
1004.64	392.569
1007.53	518.535
1010.42	640.032
1013.32	595.794
1016.21	529.281
1019.1	454.038
1021.99	404.474
1024.89	347.23
1027.78	193.916
1030.67	115.471
1033.56	69.2999
1036.46	40.2022
1039.35	20.7595
1042.24	10.0171
1045.13	36.4625
1048.03	69.1345
1050.92	72.5241
1053.81	100.07
1056.71	127.541
1059.6	158.221
1062.49	150.756
1065.38	131.436
1068.28	86.9669
1071.17	61.6559
1074.06	17.3168
1076.95	12.5446
1079.85	0.443726
1082.74	12.3614
1085.63	1.08765
1088.53	9.47192
1091.42	3.54224
1094.31	2.04163
1097.2	3.28259
1100.1	11.8871
1102.99	10.6742
1105.88	26.6262
1108.77	19.3556
1111.67	44.7374
1114.56	53.5394
1117.45	57.8572
1120.35	51.281
1123.24	72.3712
1126.13	76.9379
1129.02	40.131
1131.92	15.7216
1134.81	35.0381
1137.7	44.6234
1140.59	61.321
1143.49	41.2244
1146.38	24.978
1149.27	51.7754
1152.16	3.3291
1155.06	16.7826
1157.95	3.29675
1160.84	0.231812
1163.74	6.48914
1166.63	46.0631
1169.52	58.2738
1172.41	66.7263
1175.31	100.622
1178.2	120.422
1181.09	148.468
1183.98	132.506
1186.88	103.695
1189.77	60.4165
1192.66	29.5946
1195.56	61.911
1198.45	40.2063
1201.34	46.0144
1204.23	45.1349
1207.13	28.4311
1210.02	30.1804
1212.91	17.2371
1215.8	18.9858
1218.7	46.9573
1221.59	27.736
1224.48	43.9047
1227.38	43.1377
1230.27	17.3884
1233.16	28.1252
1236.05	25.5256
1238.95	58.2893
1241.84	19.4697
1244.73	30.4287
1247.62	26.219
1250.52	35.2709
1253.41	14.4861
1256.3	14.8447
1259.19	7.46643
1262.09	0.091553
