Measurement: Raman, 532 nm, unoriented, Raman Data Processed
Mineral: Metaschoderite
Rruff sample: R100023
Ideal chemistry: AlPO_4_3H_2_O
Locality: Fish Creek Range, Eureka County, Nevada, USA
Source: Marcus Origlieri
Description: Microcrystalline greenish-yellow coating
Raman shift (cm-1)	intensity
168.113	0
171.006	8.54776
173.898	9.05585
176.791	9.58484
179.684	10.5893
182.577	15.5909
185.469	11.9755
188.362	13.9473
191.255	10.3353
194.147	8.73506
197.04	6.07117
199.933	6.24786
202.825	3.55202
205.718	2.13388
208.611	1.50117
211.504	0.874039
214.396	3.00166
217.289	0.829147
220.182	4.67737
223.074	6.71497
225.967	8.60136
228.86	11.0898
231.752	12.1158
234.645	13.7499
237.538	15.3754
240.43	17.3427
243.323	19.3404
246.216	18.5397
249.109	20.4894
252.001	25.3879
254.894	20.3994
257.787	16.8156
260.679	17.4705
263.572	8.425
266.465	4.08011
269.358	5.13501
272.25	0.022522
275.143	1.52243
278.036	0.149506
280.928	1.51912
283.821	2.41742
286.714	7.97281
289.606	7.43755
292.499	13.9191
295.392	12.321
298.284	19.4666
301.177	20.4147
304.07	25.3859
306.963	28.7408
309.855	34.1289
312.748	39.3583
315.641	39.5274
318.533	41.1209
321.426	36.6
324.319	33.3563
327.212	29.37
330.104	25.3898
332.997	20.7135
335.89	18.2766
338.782	16.4206
341.675	11.6208
344.568	11.1987
347.46	5.20435
350.353	8.94394
353.246	5.48842
356.139	6.83884
359.031	2.1506
361.924	3.01756
364.817	4.47812
367.709	3.32483
370.602	4.57413
373.495	0.230392
376.387	1.45291
379.28	1.08481
382.173	1.33493
385.065	1.85892
387.958	1.32211
390.851	0.280426
393.744	2.28619
396.636	4.43025
399.529	1.78525
402.422	4.27095
405.314	2.45221
408.207	4.2626
411.1	4.9895
413.993	5.93236
416.885	3.93654
419.778	5.5846
422.671	5.07704
425.563	6.00459
428.456	4.48619
431.349	6.59058
434.241	5.91486
437.134	6.35362
440.027	7.77104
442.92	9.37311
445.812	9.97542
448.705	10.7756
451.598	11.9184
454.49	12.0835
457.383	10.0699
460.276	11.0129
463.168	8.17035
466.061	8.69733
468.954	13.0613
471.846	7.47244
474.739	4.84126
477.632	5.92603
480.525	2.24663
483.417	3.10646
486.31	1.47058
489.203	2.99057
492.095	2.36678
494.988	0.561279
497.881	0.400567
500.774	2.86426
503.666	1.91199
506.559	1.11194
509.452	0.784027
512.344	6.86771
515.237	1.59869
518.13	6.07901
521.022	3.14084
523.915	7.34885
526.808	11.2183
529.701	13.7715
532.593	14.5273
535.486	12.6743
538.379	13.0356
541.271	14.6773
544.164	11.0767
547.057	7.75525
549.949	7.55692
552.842	6.60452
555.735	4.51065
558.628	4.54285
561.52	6.38644
564.413	9.74606
567.306	10.2543
570.198	12.1327
573.091	15.7816
575.984	16.5789
578.876	19.5863
581.769	24.3478
584.662	28.491
587.554	28.549
590.447	31.6185
593.34	30.5859
596.232	30.9388
599.125	30.0187
602.018	28.9273
604.911	28.7068
607.803	24.512
610.696	23.8874
613.589	21.5245
616.481	20.7483
619.374	17.801
622.267	15.6611
625.159	9.88931
628.052	10.1304
630.945	10.9677
633.838	10.2493
636.73	8.7424
639.623	3.92728
642.516	4.9415
645.408	3.67383
648.301	5.46951
651.194	2.64163
654.087	2.37042
656.979	0.488068
659.872	1.17178
662.765	3.39682
665.657	1.67233
668.55	0.208557
671.443	1.47256
674.335	2.69028
677.228	1.71408
680.121	1.22519
683.014	1.83728
685.906	1.51984
688.799	1.79651
691.692	0.163706
694.584	0.761261
697.477	1.1669
700.37	1.40411
703.263	0.139038
706.155	2.40796
709.048	3.30011
711.941	3.02539
714.833	3.63699
717.726	3.9625
720.619	4.64856
723.511	3.30225
726.404	3.45367
729.297	4.64105
732.189	6.41095
735.082	4.99243
737.975	3.04724
740.868	6.12561
743.76	5.21957
746.653	8.04336
749.546	7.33231
752.438	7.78729
755.331	6.23233
758.224	3.76395
761.116	7.22089
764.009	3.51419
766.902	4.67545
769.795	4.28998
772.687	5.98425
775.58	4.5184
778.473	5.20102
781.365	5.1647
784.258	1.87137
787.151	1.85465
790.043	3.23401
792.936	2.52518
795.829	3.85779
798.722	5.41833
801.614	4.93072
804.507	1.582
807.4	5.0791
810.292	5.43674
813.185	4.61932
816.078	6.53564
818.971	4.07913
821.863	4.82498
824.756	5.27093
827.649	6.12411
830.541	4.10889
833.434	4.60562
836.327	4.31912
839.219	3.91128
842.112	2.68472
845.005	0.498383
847.898	0.54483
850.79	0.877808
853.683	1.38236
856.576	0.362183
859.468	0.500763
862.361	1.72543
865.254	0.462921
868.146	0.936401
871.039	1.41348
873.932	0.687225
876.824	1.63675
879.717	3.10953
882.61	0.886139
885.503	1.35288
888.395	4.3168
891.288	5.6918
894.181	6.49997
897.073	6.75024
899.966	10.4507
902.859	10.5981
905.751	6.57404
908.644	8.44412
911.537	10.0139
914.43	7.92282
917.322	5.71899
920.215	7.51608
923.108	8.53735
926	7.69687
928.893	8.67386
931.786	7.84454
934.678	10.1503
937.571	12.7067
940.464	14.9231
943.357	15.5607
946.249	18.0121
949.142	22.2143
952.035	25.9811
954.927	29.9725
957.82	32.8906
960.713	35.4312
963.606	35.2285
966.498	33.5787
969.391	33.7099
972.284	35.8765
975.176	37.4741
978.069	44.6188
980.962	51.7025
983.854	59.8684
986.747	65.4833
989.64	62.9572
992.533	54.3685
995.425	45.1384
998.318	35.3395
1001.21	29.0027
1004.1	20.0601
1007	14.8715
1009.89	9.54773
1012.78	5.31317
1015.67	4.14136
1018.57	0.004242
1021.46	0.542053
1024.35	0.706665
1027.24	0.451141
1030.14	0.932057
1033.03	0.743317
1035.92	4.16925
1038.82	1.99087
1041.71	0.83194
1044.6	1.9577
1047.49	0.838074
1050.39	1.34467
1053.28	0.315582
1056.17	0.85553
1059.07	4.81976
1061.96	2.37585
1064.85	2.21658
1067.74	4.02231
1070.63	3.41226
1073.53	0.087738
1076.42	3.33438
1079.31	2.64383
1082.21	1.14954
1085.1	0.88974
1087.99	3.5358
1090.88	4.34189
1093.78	4.4053
1096.67	1.12915
1099.56	1.94238
1102.45	3.65002
1105.35	3.36438
1108.24	1.25708
1111.13	7.02567
1114.03	3.75272
1116.92	3.95203
1119.81	4.7482
1122.7	4.47028
1125.6	3.34738
1128.49	5.82752
1131.38	4.10944
1134.28	4.39487
1137.17	4.78427
1140.06	4.14038
1142.95	5.04373
1145.85	0.585114
1148.74	7.07141
1151.63	5.15146
1154.52	2.29034
1157.42	4.92639
1160.31	4.12329
1163.2	2.58975
1166.09	3.29276
1168.99	4.26547
1171.88	3.2207
1174.77	1.93939
1177.66	0.891388
1180.56	2.1684
1183.45	1.61734
1186.34	3.96591
1189.24	1.26126
1192.13	5.65292
1195.02	0.565247
1197.91	5.32165
1200.81	3.89093
1203.7	0.70462
1206.59	3.40753
1209.48	3.09833
1212.38	3.52927
1215.27	4.42542
1218.16	5.5123
1221.06	5.73688
1223.95	4.38669
1226.84	3.58295
1229.73	2.46222
1232.63	0.387177
1235.52	3.01062
1238.41	0.632233
1241.31	0.672882
1244.2	3.90134
1247.09	4.466
1249.98	5.0032
1252.88	6.57938
1255.77	2.96661
1258.66	2.47702
1261.55	4.78918
1264.45	1.54364
1267.34	3.43243
1270.23	4.01428
1273.12	3.72186
1276.02	2.67896
1278.91	3.25415
1281.8	2.8728
1284.69	2.4183
1287.59	2.34323
1290.48	1.79907
1293.37	5.80292
1296.27	5.92779
1299.16	1.77124
1302.05	0.396423
