Measurement: Raman, 532 nm, unoriented, Raman Data Processed
Mineral: Metauranocircite II
Rruff sample: R070721
Ideal chemistry: Ba(UO_2_)_2_(PO_4_)_2_6H_2_O
Locality: Streuberg Quarry, Bergen, Falkenstein, Voigtland, Saxony, Germany
Source: James Shigley
Description: Yellow platy crystals
Raman shift (cm-1)	intensity
144.398	0
147.772	34.5625
151.147	187.16
154.522	192.719
157.897	329.596
161.272	212.008
164.647	216.408
168.021	251.635
171.396	286.734
174.771	266.877
178.146	287.91
181.521	460.086
184.895	365.56
188.27	287.023
191.645	206.004
195.02	198.758
198.395	137.367
201.769	254.131
205.144	192.002
208.519	74.959
211.894	9.58398
215.269	45.5215
218.644	58.2266
222.018	30.834
225.393	40.5039
228.768	30.2344
232.143	18.5117
235.518	27.1055
238.893	5.38281
242.267	92.4551
245.642	132.648
249.017	102.385
252.392	64.0938
255.767	128.633
259.141	165.195
262.516	153.238
265.891	145.582
269.266	119.236
272.641	164.334
276.015	158.828
279.39	125.418
282.765	52.5723
286.14	24.3574
289.515	155.309
292.889	149.898
296.264	87.3203
299.639	27.8008
303.014	9.75195
306.389	56.5273
309.764	20.6914
313.138	16.875
316.513	10.0391
319.888	89.7227
323.263	108.385
326.638	53.7949
330.012	108.832
333.387	148.248
336.762	169.397
340.137	189.916
343.512	234.41
346.887	214.514
350.261	260.137
353.636	325.272
357.011	253.693
360.386	347.119
363.761	366.242
367.135	315.834
370.51	245.615
373.885	298.154
377.26	393.699
380.635	547.148
384.01	405.371
387.384	381.707
390.759	339.133
394.134	368.203
397.509	378.859
400.884	471.875
404.259	423.988
407.633	413.871
411.008	370.117
414.383	498.523
417.758	392.453
421.132	264.426
424.507	269.637
427.882	362.672
431.257	428.898
434.632	341.758
438.007	355.793
441.381	259.289
444.756	267.559
448.131	146.508
451.506	97.6016
454.881	105.305
458.255	21.7148
461.63	14.5977
465.005	57.2695
468.38	24.5
471.755	2.92578
475.13	16.9258
478.504	3.77344
481.879	31.9844
485.254	102.973
488.629	123.977
492.004	31.4102
495.378	26.0039
498.753	80
502.128	135.617
505.503	130.074
508.878	112.297
512.253	165.695
515.627	271.379
519.002	263.035
522.377	309.875
525.752	476.074
529.127	556.398
532.501	658.723
535.876	713.84
539.251	766.723
542.626	844.637
546.001	969.504
549.375	992.144
552.75	1272.47
556.125	1401.35
559.5	1515.36
562.875	1712.36
566.25	1849.86
569.625	1923.89
572.999	1983.69
576.374	2106
579.749	2076.6
583.124	2216.73
586.499	2211.43
589.873	2357.03
593.248	2135.94
596.623	2201.6
599.998	2229.59
603.373	2187.77
606.747	2045.65
610.122	1945.89
613.497	1919.72
616.872	1693.38
620.247	1558.46
623.621	1494.45
626.996	1423.31
630.371	1256.57
633.746	1085.1
637.121	964.547
640.496	839.215
643.87	714.367
647.245	584.453
650.62	605.531
653.995	490.996
657.37	473.914
660.745	374.238
664.119	240.731
667.494	176.273
670.869	149.836
674.244	137.055
677.619	102.992
680.993	11.6016
684.368	38.3945
687.743	13.8984
691.118	97.5547
694.493	55.5742
697.867	86.1719
701.242	11.7852
704.617	32.3242
707.992	67.9805
711.367	23.4004
714.741	24.4316
718.116	40.9551
721.491	41.8379
724.866	41.916
728.241	15.8613
731.616	68.8496
734.99	165.631
738.365	210.555
741.74	164.404
745.115	184.619
748.49	200.594
751.865	149.705
755.239	172.502
758.614	208.969
761.989	251.613
765.364	318.877
768.739	261.053
772.113	277.469
775.488	252.172
778.863	186.697
782.238	178.102
785.613	219.555
788.987	240.809
792.362	208.012
795.737	261.287
799.112	349.24
802.487	462.592
805.862	585.447
809.236	656.084
812.611	585.266
815.986	469.672
819.361	595.295
822.736	620.244
826.111	883.481
829.485	1191.63
832.86	1042.77
836.235	460.834
839.61	223.371
842.985	194.547
846.359	62.5703
849.734	125.785
853.109	109.691
856.484	93.6699
859.859	84.3945
863.234	66.4004
866.608	97.4473
869.983	54.7363
873.358	72.332
876.733	13.8184
880.107	9.33789
883.482	6.93359
886.857	49.4863
890.232	37.8496
893.607	19.7227
896.982	25.8281
900.356	93.2031
903.731	126.951
907.106	86.4531
910.481	94.5234
913.856	68.7383
917.231	120.082
920.605	77.2793
923.98	100.33
927.355	43.4531
930.73	66.1367
934.105	36.7207
937.479	0.679688
940.854	23.8867
944.229	35.6445
947.604	3.83789
950.979	14.4531
954.354	5.94141
957.728	10.9258
961.103	20.2734
964.478	79.3359
967.853	290.736
971.227	583.688
974.602	779.68
977.977	750.863
981.352	548.914
984.727	434.107
988.102	509.932
991.476	697.269
994.851	871.977
998.226	1002.82
1001.6	997.521
1004.98	720.361
1008.35	671.711
1011.73	685.32
1015.1	474.668
1018.48	268.285
1021.85	195.943
1025.22	125.406
1028.6	69.6699
1031.97	98.3984
1035.35	42.8672
1038.72	8.61328
1042.1	22.4062
1045.47	4.84961
1048.85	35.1406
1052.22	38.7148
1055.6	48.3281
1058.97	15.7324
1062.35	34.8145
1065.72	46.5215
1069.1	19.9277
1072.47	75.6562
1075.85	13.9121
1079.22	42.4844
1082.6	76.0918
1085.97	142.853
1089.35	104.609
1092.72	60.4219
1096.1	109.35
1099.47	159.799
1102.85	182.512
1106.22	164.816
1109.6	132.041
1112.97	177.981
1116.35	190.457
1119.72	142.781
1123.09	126.121
1126.47	97.3984
1129.84	62.8086
1133.22	93.1211
1136.59	68.6816
1139.97	72.291
1143.34	34.6875
1146.72	10.8926
1150.09	59.7129
1153.47	67.1094
1156.84	23.7148
1160.22	81.5019
1163.59	52.8145
1166.97	55.2324
1170.34	20.6582
1173.72	33.9082
1177.09	67.1504
1180.47	7.9082
1183.84	69.4844
1187.22	73.9258
1190.59	29.5254
1193.96	47.0371
1197.34	42.3164
1200.71	71.6699
1204.09	91.9648
1207.46	46.9355
1210.84	38.4062
1214.21	41.5039
1217.59	104.588
1220.96	97.3711
1224.34	62.5215
1227.71	101.207
1231.09	30.375
1234.46	38.1719
1237.84	18.5391
1241.21	18.7969
1244.59	70.9434
1247.96	45.4395
1251.34	26.4512
1254.71	22.9531
1258.09	37.8887
1261.46	110.408
1264.84	97.6035
1268.21	43.9297
1271.59	68.6035
1274.96	14.9961
1278.34	46.3027
1281.71	27.0371
1285.09	30.7109
1288.46	3.54688
1291.84	69.2227
1295.21	29.4062
1298.59	51.7676
1301.96	75.8359
1305.33	0
