Measurement: Raman, 532 nm, unoriented, Raman Data Processed
Mineral: Metauranocircite-I
Rruff sample: R050575
Ideal chemistry: Ba(U^6+^O_2_)_2_(PO_4_)_2_8H_2_O
Locality: Voightland, Saxony, Germany
Source: University of Arizona Mineral Museum
Description: Yellow platy crystals with minor intergrown quartz
Measured chemistry: (Ba_0.98_Ca_0.02_)_Σ=1_(U_1.00_O_2_)_2_(P_1.00_O_4_)_2_·6.13H_2_O
Raman shift (cm-1)	intensity
144.88	0
148.255	19.707
151.629	188.01
155.004	280.762
158.379	240.533
161.754	68.9746
165.129	43.4902
168.504	226.109
171.878	245.809
175.253	278.875
178.628	227.023
182.003	303.092
185.377	345.174
188.752	269.428
192.127	93.9981
195.502	181.977
198.877	190.08
202.252	178.887
205.626	228.541
209.001	85.8184
212.376	31.7969
215.751	68.832
219.126	70.5938
222.5	14.9883
225.875	13.0078
229.25	24.4043
232.625	32.9941
236	20.2461
239.375	100.527
242.749	130.463
246.124	116.834
249.499	142.285
252.874	90.6094
256.249	160.598
259.623	189.762
262.998	241.83
266.373	166.998
269.748	196.44
273.123	254.91
276.498	263.473
279.872	229.102
283.247	201.103
286.622	91.0137
289.997	143.285
293.372	171.607
296.747	143.666
300.121	115.873
303.496	11.0234
306.871	1.5957
310.246	6.84766
313.62	25.7129
316.995	21.0352
320.37	171.672
323.745	88.4082
327.12	103.07
330.495	147.19
333.869	192.65
337.244	201.133
340.619	227.812
343.994	194.777
347.369	230.566
350.743	256.379
354.118	220.062
357.493	224.254
360.868	296.336
364.243	298.398
367.618	299.055
370.992	257.25
374.367	322.019
377.742	360.207
381.117	444.586
384.492	414.438
387.866	370.59
391.241	298.848
394.616	429.094
397.991	381.519
401.366	448.629
404.741	352.231
408.115	445.656
411.49	462.035
414.865	476.191
418.24	335.695
421.615	180.164
424.99	188.086
428.364	247.539
431.739	278.945
435.114	215.519
438.489	187.086
441.864	230.172
445.238	169.359
448.613	4.64844
451.988	2.91016
455.363	38.043
458.738	92.3008
462.113	57.8633
465.487	85.1016
468.862	19.9961
472.237	22.5469
475.612	29.8086
478.986	15.8398
482.361	10
485.736	89.5547
489.111	42.9844
492.486	121.516
495.861	52.3555
499.235	252.648
502.61	269.41
505.985	296.09
509.36	231.383
512.735	401.875
516.11	513.977
519.484	566.723
522.859	618.168
526.234	778.168
529.609	934.141
532.984	982.391
536.358	1037.79
539.733	1188.26
543.108	1229.01
546.483	1462.28
549.858	1593.16
553.232	1715.17
556.607	1875.77
559.982	1945.21
563.357	2189.82
566.732	2219.58
570.107	2242.88
573.481	2331.94
576.856	2456.39
580.231	2487.66
583.606	2558
586.981	2500.28
590.356	2526.62
593.73	2396.5
597.105	2378.73
600.48	2303.46
603.855	2207.84
607.23	2033.51
610.604	1970.73
613.979	1769.41
617.354	1606.71
620.729	1504.12
624.104	1366.83
627.479	1290.37
630.853	1080.51
634.228	884.41
637.603	798.426
640.978	688.594
644.352	509.055
647.727	453.144
651.102	524.891
654.477	364.59
657.852	272.106
661.227	187.082
664.601	97.5273
667.976	72.9648
671.351	36.3281
674.726	4.24219
678.101	35.2754
681.476	72.5684
684.85	24.8945
688.225	98.2598
691.6	69.9805
694.975	61.4512
698.35	44.9531
701.724	91.7871
705.099	23.6777
708.474	49.5742
711.849	32.2188
715.224	59.8594
718.598	74.1035
721.973	143.324
725.348	172.057
728.723	108.498
732.098	214.373
735.472	283.678
738.847	318.949
742.222	332.941
745.597	303.84
748.972	288.053
752.347	203.455
755.721	242.678
759.096	278.197
762.471	345.805
765.846	311.695
769.221	256.469
772.596	280.762
775.97	317.797
779.345	276.803
782.72	277.383
786.095	281.773
789.47	332.148
792.844	298.893
796.219	389.852
799.594	485.578
802.969	659.936
806.344	831.143
809.718	943.477
813.093	796.691
816.468	823.51
819.843	832.162
823.218	993.029
826.593	1319.34
829.967	1741.52
833.342	1419.49
836.717	512.25
840.092	211.498
843.467	141.31
846.841	75.0488
850.216	24.5879
853.591	46.8887
856.966	28.3867
860.341	4.42188
863.716	4.29492
867.09	4.08594
870.465	36.457
873.84	61.9062
877.215	28.9805
880.59	55.3887
883.965	131.996
887.339	114.51
890.714	89.7188
894.089	82.4375
897.464	126.678
900.839	128.353
904.213	106.106
907.588	91.4609
910.963	106.364
914.338	111.443
917.713	82.3877
921.087	76.5332
924.462	93.1074
927.837	9.54688
931.212	69.9707
934.587	23.1094
937.962	14.8857
941.336	32.2666
944.711	52.6426
948.086	4.39551
951.461	15.7285
954.836	17.5898
958.21	45.2148
961.585	25.2627
964.96	106.861
968.335	280.033
971.71	524.106
975.085	709.57
978.459	616.948
981.834	496.505
985.209	451.098
988.584	527.554
991.959	644.584
995.333	778.979
998.708	859.912
1002.08	932.808
1005.46	661.92
1008.83	636.274
1012.21	666.844
1015.58	408.799
1018.96	204.037
1022.33	170.592
1025.71	112.456
1029.08	51.9736
1032.46	71.6426
1035.83	13.2637
1039.21	5.40723
1042.58	42.4365
1045.96	29.3037
1049.33	51.248
1052.7	40.1016
1056.08	1.15234
1059.45	18.5537
1062.83	25.9004
1066.2	65.6924
1069.58	23.875
1072.95	66.1963
1076.33	32.0703
1079.7	100.02
1083.08	140.101
1086.45	90.5547
1089.83	89.6445
1093.2	70.6953
1096.58	131.711
1099.95	146.784
1103.33	151.203
1106.7	150.34
1110.08	146.559
1113.45	147.642
1116.83	142.894
1120.2	116.952
1123.58	148.959
1126.95	112.39
1130.33	75.2764
1133.7	41.832
1137.08	57.5576
1140.45	71.9356
1143.83	56.042
1147.2	14.8486
1150.58	30.1582
1153.95	42.1465
1157.33	1.62305
1160.7	34.5488
1164.07	37.7412
1167.45	22.6533
1170.82	64.541
1174.2	51.2598
1177.57	33.8242
1180.95	34.3447
1184.32	25.6074
1187.7	60.5107
1191.07	80.335
1194.45	60.9717
1197.82	94.5762
1201.2	69.5371
1204.57	67.6299
1207.95	61.7822
1211.32	8.33594
1214.7	47.4062
1218.07	60.5898
1221.45	53.7725
1224.82	74.9707
1228.2	30.2373
1231.57	25.4268
1234.94	28.5312
1238.32	8.1377
1241.69	5.15723
1245.07	57.4922
1248.44	54.166
1251.82	40.9463
1255.19	14.2783
1258.57	21.5625
1261.94	37.2832
1265.32	65.4639
1268.69	4.41113
1272.07	15.2812
1275.44	1.91602
1278.82	40.9824
1282.19	24.3906
1285.57	26.3428
1288.94	51.7266
1292.32	36.874
1295.69	35.6475
1299.07	5.35156
1302.44	2.6709
