Measurement: Raman, 785 nm, unoriented, Raman Data Processed
Mineral: Meurigite-K
Rruff sample: R070105
Ideal chemistry: [K(H_2_O)_2.5_][Fe^3+^_8_(PO_4_)_6_(OH)_7_]4H_2_O
Locality: Teskov, Czech Republic
Source: Bob Jenkins
Description: Rosettes of yellowish-orange fibrous elongated crystals on quartz, associated with tan colored spheres of kidwellite, R070106
Raman shift (cm-1)	intensity
192.663	0
195.556	98.8999
198.449	140.877
201.341	22.252
204.234	105.11
207.127	41.1401
210.019	26.2334
212.912	8.69416
215.805	15.5298
218.698	55.2881
221.59	41.6504
224.483	140.499
227.376	75.2549
230.268	34.4951
233.161	160.437
236.054	97.3672
238.946	155.088
241.839	115.181
244.732	137.839
247.625	45.5478
250.517	84.6279
253.41	26.5591
256.303	124.093
259.195	107.844
262.088	61.1304
264.981	90.3188
267.873	155.392
270.766	120.889
273.659	140.262
276.551	184.148
279.444	195.306
282.337	157.827
285.23	213.481
288.122	236.05
291.015	228.761
293.908	193.906
296.8	195.719
299.693	180.367
302.586	178.637
305.478	234.947
308.371	261.838
311.264	266.387
314.157	321.886
317.049	321
319.942	265.66
322.835	337.802
325.727	298.547
328.62	308.891
331.513	314.187
334.406	250.72
337.298	141.442
340.191	108.556
343.084	81.457
345.976	43.7114
348.869	80.0298
351.762	34.5996
354.654	15.0542
357.547	17.2671
360.44	43.6611
363.332	19.9927
366.225	14.5435
369.118	28.2383
372.011	12.9819
374.903	69.1475
377.796	94.792
380.689	74.9814
383.581	94.9565
386.474	69.5283
389.367	106.515
392.26	208.116
395.152	298.131
398.045	289.982
400.938	325.602
403.83	283.768
406.723	307.959
409.616	283.351
412.508	230.636
415.401	137.045
418.294	220.711
421.187	178.039
424.079	164.14
426.972	159.073
429.865	215.605
432.757	326.325
435.65	331.183
438.543	430.573
441.435	415.514
444.328	398.151
447.221	406.125
450.113	295.123
453.006	231.283
455.899	180.436
458.792	150.618
461.684	237.63
464.577	259.049
467.47	250.512
470.362	298.823
473.255	223.636
476.148	246.918
479.041	212.571
481.933	308.742
484.826	261.906
487.719	278.581
490.611	314.222
493.504	308.933
496.397	298.169
499.289	269.513
502.182	163.604
505.075	163.942
507.967	75.3809
510.86	71.5244
513.753	46.919
516.646	79.751
519.538	33.2622
522.431	29.5278
525.324	38.9595
528.216	2.75732
531.109	43.479
534.002	41.5791
536.894	28.6177
539.787	74.1934
542.68	65.625
545.573	24.3042
548.465	2.94922
551.358	40.0698
554.251	152.994
557.143	85.3989
560.036	148.198
562.929	181.272
565.822	168.369
568.714	187.179
571.607	188.806
574.5	199.64
577.392	225.36
580.285	181.377
583.178	164.606
586.07	164.6
588.963	98.71
591.856	103.464
594.749	83.4692
597.641	79.2578
600.534	75.8037
603.427	53.9961
606.319	49.2241
609.212	3.46094
612.105	36.8906
614.997	1.61182
617.89	49.2524
620.783	17.0244
623.676	58.0713
626.568	30.23
629.461	7.95996
632.354	101.623
635.246	72.8496
638.139	51.374
641.032	3.73438
643.924	35.8154
646.817	35.4204
649.71	35.9878
652.602	19.6714
655.495	32.0034
658.388	32.9692
661.28	53.3037
664.173	50.0855
667.066	64.2798
669.959	30.2446
672.851	64.9341
675.744	71.1231
678.637	21.7368
681.529	44.6411
684.422	4.83984
687.315	18.4424
690.207	53.4541
693.1	45.5957
695.993	106.945
698.886	99.1773
701.778	78.0732
704.671	24.4565
707.564	26.0806
710.456	40.227
713.349	36.2329
716.242	65.2314
719.135	29.9229
722.027	141.389
724.92	90.9155
727.813	43.9751
730.705	41.5151
733.598	48.625
736.491	89.104
739.383	94.3306
742.276	92.1128
745.169	69.2925
748.062	29.458
750.954	32.3223
753.847	48.5957
756.74	70.9312
759.632	57.3613
762.525	35.5908
765.418	94.0454
768.31	107.872
771.203	78.7793
774.096	98.9956
776.989	55.5703
779.881	49.2002
782.774	50.2568
785.667	76.7002
788.559	96.5679
791.452	107.078
794.345	92.3472
797.237	53.3818
800.13	84.2358
803.023	70.8462
805.915	56.1636
808.808	86.7764
811.701	15.2188
814.594	11.6079
817.486	23.9424
820.379	130.698
823.272	21.208
826.164	43.8062
829.057	69.0425
831.95	12.0981
834.842	50.4873
837.735	44.0166
840.628	42.6611
843.521	47.3516
846.413	22.1211
849.306	59.8428
852.199	36.7998
855.091	16.3936
857.984	47.8711
860.877	97.0708
863.769	66.52
866.662	110.811
869.555	50.0034
872.448	27.9116
875.34	17.4634
878.233	6.98144
881.126	3.27539
884.018	50.0698
886.911	22.9653
889.804	9.4834
892.697	71.8428
895.589	50.9219
898.482	17.5571
901.375	67.7769
904.267	58.6743
907.16	62.1313
910.053	114.349
912.945	57.7495
915.838	104.943
918.731	108.149
921.624	80.834
924.516	131.781
927.409	61.2783
930.302	38.1704
933.194	40.9277
936.087	51.3477
938.98	33.5913
941.872	3.86768
944.765	2.48731
947.658	3.54834
950.551	11.854
953.443	27.0293
956.336	23.8101
959.229	79.1143
962.121	89.3897
965.014	161.67
967.907	184.667
970.799	183.875
973.692	252.16
976.585	317.619
979.477	255.218
982.37	241.498
985.263	228.109
988.155	197.501
991.048	227.708
993.941	212.083
996.834	304.273
999.726	409.72
1002.62	438.189
1005.51	505.474
1008.4	517.843
1011.3	579.289
1014.19	615.064
1017.08	646.479
1019.98	600.648
1022.87	603.983
1025.76	501.313
1028.65	525.778
1031.55	414.618
1034.44	368.416
1037.33	211.436
1040.22	173.733
1043.12	204.713
1046.01	111.978
1048.9	87.9146
1051.8	85.9595
1054.69	77.6269
1057.58	57.7158
1060.47	74.5601
1063.37	111.821
1066.26	104.367
1069.15	10.8486
1072.04	87.9683
1074.94	130.84
1077.83	104.683
1080.72	30.0395
1083.62	33.8149
1086.51	55.5991
1089.4	10.0102
1092.29	13.5688
1095.18	21.1641
1098.08	86.3564
1100.97	49.7007
1103.86	14.3709
1106.76	5.15576
1109.65	8.47974
1112.54	22.9614
1115.43	46.8337
1118.33	48.1968
1121.22	25.3982
1124.11	64.3196
1127.01	119.085
1129.9	117.897
1132.79	101.244
1135.68	110.362
1138.58	67.8234
1141.47	73.6667
1144.36	47.7063
1147.25	103.405
1150.15	54.3606
1153.04	55.9861
1155.93	32.0488
1158.83	15.3855
1161.72	10.3901
1164.61	34.1501
1167.5	2.11963
1170.4	24.8938
1173.29	79.417
1176.18	55.1777
1179.07	59.4888
1181.97	71.2556
1184.86	146.463
1187.75	57.3721
1190.64	52.2119
1193.54	84.165
1196.43	67.4038
1199.32	25.3677
1202.21	57.4956
1205.11	69.7942
1208	27.4539
1210.89	15.9023
1213.79	9.72119
1216.68	75.7771
1219.57	43.2537
1222.46	74.5405
1225.36	0.516602
