Measurement: Raman, 780 nm, unoriented, Raman Data Processed
Mineral: Meurigite-K
Rruff sample: R110135
Ideal chemistry: [K(H_2_O)_2.5_][Fe^3+^_8_(PO_4_)_6_(OH)_7_]4H_2_O
Locality: Sapucaia mine, Galileia, Minas Gerais, Brazil
Source: Luiz Menezes
Description: Pale yellow spheres on black cryptomelane
Raman shift (cm-1)	intensity
201.044	0
203.937	14.2261
206.829	32.646
209.722	46.3369
212.615	60.4468
215.507	81.2666
218.4	81.48
221.293	89.0947
224.186	52.5361
227.078	63.2417
229.971	21.1616
232.864	12.6729
235.756	2.48486
238.649	11.5181
241.542	5.50879
244.435	1.27783
247.327	28.7505
250.22	35.0225
253.113	23.5732
256.005	14.4204
258.898	31.6748
261.791	40.6929
264.683	33.0093
267.576	34.084
270.469	54.9004
273.361	49.5786
276.254	51.335
279.147	55.1431
282.04	57.7832
284.932	39.3608
287.825	13.4614
290.718	44.7808
293.61	23.5117
296.503	12.9072
299.396	18.6284
302.288	1.27637
305.181	1.76123
308.074	15.5781
310.967	23.7436
313.859	50.4297
316.752	74.3804
319.645	63.5562
322.537	80.895
325.43	71.4121
328.323	95.75
331.216	63.5435
334.108	64.8276
337.001	75.4849
339.894	58.2207
342.786	26.9644
345.679	29.6064
348.572	25.9463
351.464	4.15039
354.357	19.4453
357.25	23.6763
360.142	10.3516
363.035	8.25391
365.928	13.2769
368.821	9.2417
371.713	14.6426
374.606	11.2842
377.499	0.604492
380.391	1.91504
383.284	1.99658
386.177	20.6909
389.07	33.6284
391.962	36.3076
394.855	72.896
397.748	92.2559
400.64	67.645
403.533	82.6812
406.426	100.654
409.318	67.0366
412.211	50.7544
415.104	71.6685
417.997	51.1157
420.889	59.6074
423.782	71.4111
426.675	82.3867
429.567	104.952
432.46	139.07
435.353	155.08
438.245	206.682
441.138	191.69
444.031	204.06
446.924	180.905
449.816	158.94
452.709	137.983
455.602	111.403
458.494	111.223
461.387	100.348
464.28	102.568
467.173	93.7227
470.065	101.552
472.958	111.119
475.851	128.769
478.743	97.6904
481.636	98.8584
484.529	98.4155
487.421	102.187
490.314	119.832
493.207	101.245
496.099	95.9033
498.992	100.554
501.885	68.9214
504.778	52.1177
507.67	37.335
510.563	37.3159
513.456	14.1533
516.348	5.18506
519.241	1.94189
522.134	8.84912
525.026	7.08594
527.919	6.77637
530.812	7.37109
533.705	1.34668
536.597	7.14697
539.49	7.34668
542.383	1.07666
545.275	7.72803
548.168	20.0825
551.061	34.645
553.953	48.7866
556.846	55.6597
559.739	64.3115
562.631	86.0376
565.524	94.8306
568.417	109.724
571.31	107.242
574.202	89.1348
577.095	96.7549
579.988	89.2529
582.88	77.0156
585.773	76.9448
588.666	43.4766
591.559	45.8852
594.451	31.2129
597.344	55.666
600.237	20.0151
603.129	22.3086
606.022	19.7515
608.915	7.72314
611.808	17.583
614.7	21.2969
617.593	16.6787
620.486	20.5561
623.378	26.6914
626.271	21.9966
629.164	31.1992
632.056	19.5337
634.949	42.7144
637.842	44.0532
640.735	32.3379
643.627	40.3408
646.52	40.4175
649.413	33.4048
652.305	27.2842
655.198	14.0146
658.091	16.6401
660.983	16.7798
663.876	5.34668
666.769	1.41211
669.662	1.59619
672.554	5.9624
675.447	1.41162
678.34	6.50488
681.232	17.9653
684.125	15.3789
687.018	14.456
689.91	3.15527
692.803	3.90039
695.696	1.00147
698.588	1.72266
701.481	41.667
704.374	11.9194
707.267	21.3047
710.159	33.1206
713.052	27.29
715.945	25.9605
718.837	23.1567
721.73	13.9106
724.623	27.6977
727.515	28.7822
730.408	30.4429
733.301	29.1768
736.194	19.021
739.086	19.2158
741.979	14.4141
744.872	19.6396
747.764	18.7666
750.657	0.822266
753.55	14.5698
756.442	10.4585
759.335	8.31445
762.228	13.1602
765.121	4.60889
768.013	5.875
770.906	6.51318
773.799	5.19043
776.691	10.3828
779.584	16.6416
782.477	15.0249
785.37	10.1567
788.262	8.98193
791.155	11.5327
794.048	13.0249
796.94	19.1773
799.833	22.7227
802.726	16.2227
805.618	14.6343
808.511	27.0464
811.404	8.90332
814.297	13.877
817.189	24.0947
820.082	24.7539
822.975	25.8652
825.867	35.3657
828.76	32.3638
831.653	22.0483
834.545	20.854
837.438	28.3843
840.331	24.2642
843.223	18.4048
846.116	17.7188
849.009	19.1851
851.902	22.0727
854.794	16.3032
857.687	22.853
860.58	29.8154
863.472	31.3189
866.365	8.01416
869.258	13.1479
872.15	24.1323
875.043	21.5293
877.936	12.835
880.829	8.03809
883.721	24.9429
886.614	11.8838
889.507	7.62158
892.399	12.6089
895.292	22.061
898.185	6.01514
901.077	1.70117
903.97	12.6602
906.863	11.001
909.756	27.0693
912.648	37.6655
915.541	29.7847
918.434	48.0483
921.326	37.9121
924.219	22.1924
927.112	4.66992
930.005	14.5371
932.897	9.22998
935.79	4.99414
938.683	2.92529
941.575	12.0952
944.468	6.08887
947.361	11.7573
950.253	3.45898
953.146	12.1108
956.039	30.5757
958.932	43.5659
961.824	59.6953
964.717	71.8301
967.61	117.008
970.502	145.887
973.395	159.315
976.288	171.291
979.18	161.12
982.073	150.062
984.966	140.622
987.859	128.758
990.751	143.004
993.644	131.573
996.537	158.037
999.429	179.403
1002.32	190.439
1005.22	215.788
1008.11	239.051
1011	257.76
1013.89	262.573
1016.79	274.278
1019.68	246.917
1022.57	223.932
1025.46	205.425
1028.36	173.139
1031.25	160.005
1034.14	131.482
1037.03	124.323
1039.93	96.0947
1042.82	84.6372
1045.71	92.04
1048.61	88.1333
1051.5	95.3555
1054.39	120.151
1057.28	127.679
1060.18	125.256
1063.07	120.303
1065.96	125.812
1068.85	108.243
1071.75	89.9902
1074.64	67.9678
1077.53	58.239
1080.42	47.7812
1083.32	33.2219
1086.21	32.8506
1089.1	14.7039
1092	13.9587
1094.89	8.20679
1097.78	6.31323
1100.67	2.07202
1103.57	7.23584
1106.46	5.46069
1109.35	6.01904
1112.24	1.40259
1115.14	0.297852
1118.03	18.9731
1120.92	34.5312
1123.82	47.2139
1126.71	42.2126
1129.6	46.8633
1132.49	50.0671
1135.39	49.2004
1138.28	42.6594
1141.17	38.8269
1144.06	31.0776
1146.96	30.9688
1149.85	29.176
1152.74	20.3826
1155.63	19.4898
1158.53	14.7422
1161.42	3.6272
1164.31	10.5889
1167.21	6.30908
1170.1	17.9624
1172.99	11.2949
1175.88	11.8838
1178.78	14.6765
1181.67	19.1118
1184.56	18.6541
1187.45	24.1189
1190.35	31.3064
1193.24	25.4163
1196.13	38.8945
1199.03	23.6186
1201.92	17.4861
1204.81	7.2749
1207.7	11.6094
1210.6	10.5327
1213.49	9.55176
1216.38	7.40186
1219.28	2.59497
1222.17	5.79321
1225.06	10.687
1227.95	14.4629
1230.85	4.06348
1233.74	2.125
1236.63	7.02148
1239.52	5.36816
1242.42	3.01758
1245.31	5.06982
1248.2	2.25928
1251.09	1.39941
1253.99	4.62085
1256.88	12.5479
1259.77	19.0791
1262.66	19.916
1265.56	32.7871
1268.45	20.9326
1271.34	14.2122
1274.24	8.90356
1277.13	15.551
1280.02	14.6773
1282.91	14.6997
1285.81	0
