Measurement: Raman, 532 nm, unoriented, Raman Data Processed
Mineral: Meurigite-K
Rruff sample: R070105
Ideal chemistry: [K(H_2_O)_2.5_][Fe^3+^_8_(PO_4_)_6_(OH)_7_]4H_2_O
Locality: Teskov, Czech Republic
Source: Bob Jenkins
Description: Rosettes of yellowish-orange fibrous elongated crystals on quartz, associated with tan colored spheres of kidwellite, R070106
Raman shift (cm-1)	intensity
191.161	0
194.054	10.7266
196.947	246.644
199.84	212.504
202.732	121.027
205.625	241.367
208.518	353.234
211.41	444.434
214.303	639.445
217.196	595.031
220.089	703.293
222.981	487.289
225.874	506.238
228.767	483.336
231.659	109.574
234.552	248.332
237.445	220.902
240.337	181.019
243.23	212.684
246.123	77.9375
249.015	38.207
251.908	15.9805
254.801	77.957
257.693	62.8086
260.586	149.41
263.479	292.277
266.372	447.41
269.264	522.516
272.157	537.223
275.05	685.859
277.942	744.363
280.835	706.153
283.728	493.21
286.62	510.754
289.513	588.336
292.406	453.113
295.299	374.824
298.191	296.375
301.084	395.613
303.977	345.824
306.869	314.606
309.762	440.527
312.655	398.262
315.548	393.316
318.44	411.051
321.333	417.406
324.226	398.258
327.118	361.988
330.011	261.309
332.904	251.922
335.796	169.469
338.689	246.953
341.582	327.387
344.474	183.992
347.367	265.957
350.26	75.8906
353.152	161.484
356.045	145.996
358.938	152.387
361.831	87.5
364.723	72.3789
367.616	29.5508
370.509	86.1484
373.401	29.6367
376.294	11.4727
379.187	9.98828
382.079	66.8516
384.972	7.32031
387.865	72.4609
390.758	116.219
393.65	549.09
396.543	536.137
399.436	743.344
402.328	952.387
405.221	1093.38
408.114	1030.62
411.007	1158.66
413.899	1256.32
416.792	1411.86
419.685	1750.07
422.577	1737.28
425.47	1907.87
428.363	1914.95
431.255	1772.58
434.148	1726.33
437.041	1654.6
439.933	1484.96
442.826	1193.02
445.719	1157.35
448.612	1032.82
451.504	1056.14
454.397	993.41
457.29	972.082
460.182	1137.01
463.075	1126.64
465.968	1049.48
468.86	1169.51
471.753	1105.28
474.646	1159.31
477.538	1020.55
480.431	1072.98
483.324	922.195
486.217	1163.55
489.109	905.293
492.002	1044.52
494.895	818.555
497.787	862.539
500.68	903.262
503.573	629.949
506.466	390.934
509.358	249.387
512.251	316.973
515.144	224.633
518.036	53.5781
520.929	55.9766
523.822	69.6641
526.714	2.67188
529.607	71.6367
532.5	40.1172
535.393	112.09
538.285	93.7773
541.178	3.51562
544.071	125.496
546.963	415.172
549.856	220.93
552.749	449.836
555.641	619.457
558.534	820.094
561.427	914.797
564.319	828.973
567.212	975.996
570.105	918.926
572.998	696.258
575.89	646.328
578.783	551.352
581.676	413.769
584.568	398.043
587.461	265.316
590.354	267.328
593.246	336.262
596.139	289.734
599.032	51.0625
601.924	196.449
604.817	284.914
607.71	205.68
610.603	6.01172
613.495	87.3633
616.388	88.9141
619.281	24.1445
622.173	402.57
625.066	256.047
627.959	173.074
630.851	325.68
633.744	350.152
636.637	526.297
639.53	520.223
642.422	612.852
645.315	464.266
648.208	771.707
651.1	654.055
653.993	567.641
656.886	464.078
659.779	314.648
662.671	499.273
665.564	368.211
668.457	334.828
671.349	333.156
674.242	392.047
677.135	315.664
680.027	265.078
682.92	67.7109
685.813	74.0234
688.705	12.6328
691.598	40.7266
694.491	145.461
697.384	170.206
700.276	155.438
703.169	228.492
706.062	159.086
708.954	195.023
711.847	40.1016
714.74	170.82
717.632	54.1172
720.525	77.3281
723.418	73.0625
726.311	214.375
729.203	153.25
732.096	225.531
734.989	44.6406
737.881	12.5547
740.774	8.96094
743.667	89.3906
746.559	139.688
749.452	42.0703
752.345	11.4297
755.237	344.93
758.13	167.656
761.023	87.4297
763.916	27.4453
766.808	90.3047
769.701	167.422
772.594	275.453
775.486	29.6094
778.379	107.125
781.272	110.664
784.164	191.781
787.057	100.789
789.95	427.523
792.843	231.609
795.735	485.398
798.628	244.68
801.521	246.422
804.413	46.9844
807.306	109.383
810.199	215.555
813.091	208.383
815.984	211.211
818.877	172.211
821.769	138.719
824.662	295.258
827.555	52.1484
830.448	24.7656
833.34	73.625
836.233	48.1328
839.126	291.883
842.018	137.602
844.911	274.93
847.804	252.023
850.697	17.4844
853.589	136.992
856.482	241.078
859.375	180.844
862.267	174.578
865.16	167.078
868.053	350.234
870.945	347.562
873.838	235.852
876.731	139.359
879.624	324.438
882.516	33.4141
885.409	357.984
888.302	389.172
891.194	303.883
894.087	346.797
896.98	73.7734
899.872	93.6328
902.765	370.148
905.658	12.0859
908.551	47.9922
911.443	48.9844
914.336	257.445
917.229	36.5781
920.121	81.4297
923.014	209.578
925.907	46.0625
928.799	135.117
931.692	366.805
934.585	208.062
937.477	28.5156
940.37	126.039
943.263	154.875
946.155	23.0781
949.048	73.1328
951.941	254.812
954.834	182.031
957.726	294.727
960.619	380.031
963.512	543.805
966.404	686.133
969.297	624.578
972.19	1015.62
975.082	988.32
977.975	1281.54
980.868	1509.61
983.761	1770.81
986.653	2229.07
989.546	2357.66
992.439	2783.59
995.331	3322.15
998.224	3587.07
1001.12	3815.95
1004.01	4110.94
1006.9	4301.92
1009.79	4272.22
1012.69	3853.31
1015.58	3567.37
1018.47	3614.03
1021.37	3373.7
1024.26	3196.54
1027.15	2972.66
1030.04	2711.27
1032.94	2657.02
1035.83	2226.57
1038.72	2158.15
1041.62	1711.23
1044.51	1476.13
1047.4	1376.77
1050.29	1174.01
1053.18	1151.09
1056.08	573.375
1058.97	739.625
1061.86	668.219
1064.76	557.328
1067.65	328.695
1070.54	331.648
1073.43	126.5
1076.33	195.797
1079.22	44.6875
1082.11	269.18
1085.01	194.844
1087.9	59.4922
1090.79	176.148
1093.68	34.7969
1096.58	138.086
1099.47	0.445313
1102.36	47.4609
1105.25	104.664
1108.15	66.625
1111.04	160.484
1113.93	359.404
1116.83	282.68
1119.72	423.133
1122.61	405.094
1125.5	402.094
1128.4	480.945
1131.29	215.891
1134.18	420.289
1137.07	123.43
1139.97	398.508
1142.86	548.703
1145.75	154.945
1148.64	93.2266
1151.54	560.594
1154.43	338.961
1157.32	178.898
1160.21	430.68
1163.11	100.68
1166	264.609
1168.89	211.648
1171.79	237.766
1174.68	73.4297
1177.57	176.07
1180.46	207.039
1183.36	41.1484
1186.25	297.344
1189.14	125.805
1192.04	87.7422
1194.93	294.812
1197.82	210.469
1200.71	78.8281
1203.61	29.8281
1206.5	195.094
1209.39	20.6719
1212.28	185.594
1215.18	137.852
1218.07	296.391
1220.96	159.266
1223.85	278.141
1226.75	28.5469
1229.64	86.4453
1232.53	0.867188
1235.42	68.8594
1238.32	123.039
1241.21	286.844
1244.1	142.477
1247	219.414
1249.89	410.148
1252.78	210.719
1255.67	246.016
1258.57	159
1261.46	403.493
1264.35	355.425
1267.24	370.828
1270.14	187.57
1273.03	279.344
1275.92	445.938
1278.82	93.5938
1281.71	328.562
1284.6	537.461
1287.49	277.602
1290.39	352.148
1293.28	152.094
1296.17	272.82
1299.07	175.734
1301.96	292.688
