Measurement: Raman, 532 nm, unoriented, Raman Data Processed
Mineral: Meurigite-K
Rruff sample: R110135
Ideal chemistry: [K(H_2_O)_2.5_][Fe^3+^_8_(PO_4_)_6_(OH)_7_]4H_2_O
Locality: Sapucaia mine, Galileia, Minas Gerais, Brazil
Source: Luiz Menezes
Description: Pale yellow spheres on black cryptomelane
Raman shift (cm-1)	intensity
200.415	0
203.308	39.6758
206.2	35.3047
209.093	140.633
211.986	259.852
214.878	443.914
217.771	644.742
220.664	657.629
223.556	675.234
226.449	450.293
229.342	468.086
232.234	432.789
235.127	519.449
238.02	375.637
240.913	221.676
243.805	218.086
246.698	246.961
249.591	257.848
252.483	242.691
255.376	261.695
258.269	314.332
261.161	272.547
264.054	247.281
266.947	287.164
269.84	316.828
272.732	447.004
275.625	520.047
278.518	542.988
281.41	465.641
284.303	178.769
287.196	17.0195
290.089	13.9805
292.981	63.6484
295.874	59.5156
298.767	37.2422
301.659	82.6133
304.552	163.703
307.445	152.566
310.337	229.75
313.23	332.184
316.123	430.027
319.015	436.832
321.908	423.801
324.801	372.379
327.694	331.816
330.586	271.066
333.479	210.644
336.372	352.055
339.264	338.984
342.157	157.348
345.05	15.5352
347.942	2.61719
350.835	33.2578
353.728	17.9492
356.621	119.102
359.513	81.4141
362.406	0.648438
365.299	40.5859
368.191	22.4961
371.084	21.7305
373.977	7.94531
376.87	15.1836
379.762	53.7852
382.655	57.8398
385.548	214.305
388.44	328.422
391.333	349.297
394.226	398.836
397.118	586.84
400.011	701.785
402.904	745.301
405.796	718.719
408.689	607.633
411.582	590.793
414.475	523.082
417.367	467.609
420.26	314.352
423.153	342.219
426.045	453.102
428.938	631.867
431.831	808.16
434.724	940.008
437.616	1097.62
440.509	1176.1
443.402	1257.65
446.294	1156.42
449.187	1017.74
452.08	786.789
454.972	617.481
457.865	579.465
460.758	595.211
463.651	563.723
466.543	493.004
469.436	449.172
472.329	440.426
475.221	440.715
478.114	456.492
481.007	489.07
483.899	581.828
486.792	591.676
489.685	599.613
492.577	601.965
495.47	663.644
498.363	568.004
501.256	423.902
504.148	293.602
507.041	156.297
509.934	113.481
512.826	55.8008
515.719	21.875
518.612	78.4961
521.505	49.293
524.397	19.3906
527.29	153.457
530.183	95.7266
533.075	86.8828
535.968	68.4883
538.861	51.9141
541.753	142.043
544.646	212.359
547.539	298.117
550.432	411.66
553.324	509.535
556.217	546.449
559.11	579.43
562.002	640.125
564.895	724.754
567.788	708.168
570.68	694.723
573.573	649.562
576.466	665.992
579.359	649.723
582.251	631.934
585.144	469.414
588.037	490.82
590.929	430.223
593.822	380.281
596.715	293.914
599.607	234.328
602.5	94.3438
605.393	5.08203
608.285	74.7539
611.178	114.695
614.071	95.3789
616.964	98.5078
619.856	103.012
622.749	135.875
625.642	14.1328
628.534	67.6133
631.427	23.543
634.32	108.867
637.212	139.094
640.105	132.465
642.998	114.211
645.891	94.6875
648.783	54.3711
651.676	16.6758
654.569	101.555
657.461	91.6992
660.354	130.367
663.247	54.2383
666.139	17.2734
669.032	10.6914
671.925	15.582
674.818	11.5117
677.71	65.4883
680.603	110.844
683.496	192.43
686.388	156.934
689.281	202.922
692.174	206.109
695.067	186.469
697.959	221.238
700.852	119.469
703.745	55.8945
706.637	108.769
709.53	182.281
712.423	165.047
715.315	64.7109
718.208	48.8984
721.101	4.72266
723.994	42.1797
726.886	197.164
729.779	228.371
732.672	198.309
735.564	145.746
738.457	126.238
741.35	71.4961
744.242	3.58594
747.135	42.1758
750.028	104.836
752.92	271.867
755.813	308.172
758.706	251.363
761.599	98.8594
764.491	174.934
767.384	183.809
770.277	149.625
773.169	199.828
776.062	145.773
778.955	149.172
781.847	152.766
784.74	112.031
787.633	13.582
790.526	64.9961
793.418	167.606
796.311	109.281
799.204	22.0039
802.096	28.7422
804.989	39.918
807.882	52.332
810.774	74.8438
813.667	99.5469
816.56	139.031
819.453	236.844
822.345	247.414
825.238	68.8281
828.131	18.7422
831.023	82.5117
833.916	32.4688
836.809	24.1055
839.702	34.8125
842.594	57.9688
845.487	85.3242
848.38	4.35156
851.272	15.3867
854.165	49.2383
857.058	175.418
859.95	175.902
862.843	167.543
865.736	84.0977
868.629	7.30859
871.521	93.2383
874.414	239.668
877.307	181.305
880.199	119.281
883.092	117.035
885.985	229.949
888.877	294.195
891.77	194.121
894.663	140.805
897.556	51.75
900.448	90.8164
903.341	83.1836
906.234	206.012
909.126	344.668
912.019	324.941
914.912	331.387
917.804	406.246
920.697	319.922
923.59	196.781
926.482	248.699
929.375	165.391
932.268	21.1133
935.161	108.309
938.053	94.6289
940.946	16.2539
943.839	8.97266
946.731	66.4062
949.624	28.1367
952.517	139.574
955.409	207.273
958.302	286.418
961.195	480.094
964.088	853.109
966.98	1198.61
969.873	1497.1
972.766	1572.83
975.658	1581.68
978.551	1644.82
981.444	1466.88
984.337	1262.8
987.229	1154.33
990.122	1166.33
993.015	1231.09
995.907	1132.76
998.8	1189.84
1001.69	1377.67
1004.59	1672.18
1007.48	1886.61
1010.37	2096.15
1013.26	2056.73
1016.16	1987.05
1019.05	1930.92
1021.94	1899.69
1024.83	1682.14
1027.73	1447.69
1030.62	1199.04
1033.51	1078.74
1036.4	985.656
1039.3	759.34
1042.19	606.566
1045.08	541.199
1047.98	558.762
1050.87	718.039
1053.76	938.402
1056.65	974.367
1059.55	977.676
1062.44	954.836
1065.33	818.606
1068.22	719.176
1071.12	634.82
1074.01	468.148
1076.9	333.875
1079.8	341.731
1082.69	225.152
1085.58	121.332
1088.47	16.5781
1091.37	76.7109
1094.26	1.96875
1097.15	1.55469
1100.04	34.8945
1102.94	37.6602
1105.83	54.4922
1108.72	31.9961
1111.62	147.512
1114.51	219.621
1117.4	289.012
1120.29	340.195
1123.19	484.59
1126.08	427.586
1128.97	437.668
1131.86	261.062
1134.76	328.695
1137.65	340.949
1140.54	293.074
1143.43	235.805
1146.33	216.027
1149.22	294.441
1152.11	191.512
1155.01	82.8359
1157.9	33.0859
1160.79	64.293
1163.68	51.9609
1166.58	60.375
1169.47	40.9297
1172.36	96.2031
1175.26	105.41
1178.15	151.254
1181.04	174.269
1183.93	237.277
1186.83	276.188
1189.72	288.828
1192.61	313.449
1195.5	213.207
1198.4	278.481
1201.29	266.809
1204.18	203.348
1207.07	367.082
1209.97	439.484
1212.86	473.293
1215.75	303.66
1218.64	143.738
1221.54	100.625
1224.43	189.664
1227.32	261.773
1230.22	134.09
1233.11	59.1523
1236	58.3555
1238.89	30
1241.79	138.879
1244.68	161.481
1247.57	120.523
1250.46	89.8047
1253.36	153.984
1256.25	203.266
1259.14	266.844
1262.04	299.676
1264.93	299.273
1267.82	278.242
1270.71	184.324
1273.61	151.309
1276.5	224.012
1279.39	143.594
1282.29	23.0508
1285.18	95.3086
1288.07	103.109
1290.96	112.488
1293.86	20.3203
1296.75	90.4141
1299.64	135.18
1302.53	30.2891
