Measurement: Raman, 780 nm, unoriented, Raman Data Processed
Mineral: Microcline
Rruff sample: R050193
Ideal chemistry: KAlSi_3_O_8_
Locality: Devil's Head, Douglas County, Colorado, USA
Source: Dave Bunk Minerals
Description: White to colorless heterogeneous mixture of K and Na feldspar in a cluster of crystals. Crystal structure determined, presented below. This sample is known as an intermediate microcline in the literature.
Measured chemistry: (K_0.929_Na_0.071_)(Al_1.005_Si_2.994_Fe_0.001_)O_7.993_F_0.007_  ; Light Band :  (Na_0.973_K_0.007_Ca_0.020_)(Al_1.020_Si_2.980_)O_8_ ; Dark Band
Raman shift (cm-1)	intensity
135.392	0
138.285	54.296
141.178	80.8817
144.07	51.0505
146.963	69.0861
149.856	128.756
152.748	224.241
155.641	323.226
158.534	359.189
161.426	247.187
164.319	119.371
167.212	38.0094
170.105	12.5678
172.997	40.8993
175.89	79.4554
178.783	85.1377
181.675	50.4767
184.568	9.83423
187.461	5.38391
190.353	3.3186
193.246	22.5477
196.139	63.4001
199.031	79.299
201.924	12.8595
204.817	0.009033
207.709	14.8475
210.602	1.55225
213.495	1.91113
216.388	1.54834
219.28	5.84058
222.173	1.01392
225.066	10.3052
227.958	15.2417
230.851	18.8894
233.744	24.5845
236.637	47.5792
239.529	46.7955
242.422	67.027
245.315	78.9021
248.207	99.6863
251.1	120.816
253.993	160.878
256.885	203.43
259.778	242.441
262.671	270.435
265.563	289.769
268.456	295.754
271.349	303.641
274.242	324.457
277.134	365.072
280.027	409.513
282.92	399.886
285.812	308.754
288.705	209.147
291.598	116.303
294.49	69.3401
297.383	48.9853
300.276	40.5645
303.169	17.1926
306.061	13.2424
308.954	4.13501
311.847	10.0034
314.739	1.552
317.632	2.86328
320.525	7.83789
323.418	20.6533
326.31	8.85303
329.203	15.4702
332.096	25.8669
334.988	19.7354
337.881	7.823
340.774	13.6929
343.666	0.441406
346.559	10.2419
349.452	9.39014
352.344	8.60645
355.237	8.03809
358.13	4.20532
361.023	23.1838
363.915	5.36353
366.808	15.9477
369.701	18.9644
372.593	23.509
375.486	1.92651
378.379	0.842529
381.272	8.75513
384.164	9.52685
387.057	16.5823
389.95	23.5249
392.842	8.1062
395.735	15.2959
398.628	22.4275
401.52	25.0037
404.413	23.3279
407.306	31.6521
410.199	18.385
413.091	12.5127
415.984	0.718506
418.877	0.981934
421.769	2.39697
424.662	10.9697
427.555	5.56836
430.447	3.66846
433.34	25.8193
436.233	18.2939
439.125	33.9285
442.018	31.7429
444.911	79.7437
447.804	96.9504
450.696	130.891
453.589	171.696
456.482	180.986
459.374	143.604
462.267	122.455
465.16	134.412
468.053	169.574
470.945	230.085
473.838	292.435
476.731	280.808
479.623	182.651
482.516	152.444
485.409	99.9692
488.301	116.371
491.194	110.7
494.087	140.583
496.979	186.548
499.872	242.021
502.765	305.929
505.658	476.652
508.55	647.017
511.443	854.97
514.336	840.418
517.228	539.88
520.121	289.497
523.014	168.927
525.906	103.418
528.799	68.8897
531.692	41.2192
534.585	24.812
537.477	10.9336
540.37	5.13525
543.263	2.01416
546.155	2.51025
549.048	15.4619
551.941	3.28272
554.833	22.4653
557.726	8.92969
560.619	8.69629
563.511	12.356
566.404	13.1475
569.297	23.9854
572.19	16.2588
575.082	17.9624
577.975	19.1421
580.868	18.3291
583.76	21.3418
586.653	16.022
589.546	28.3857
592.438	34.9019
595.331	31.7852
598.224	27.9863
601.117	21.9009
604.009	8.66113
606.902	17.3618
609.795	13.2256
612.687	21.0483
615.58	7.97852
618.473	9.93896
621.365	18.5288
624.258	19.4888
627.151	31.9697
630.044	45.1748
632.936	13.6753
635.829	20.5171
638.722	12.4194
641.614	51.6255
644.507	29.501
647.4	47.2559
650.293	45.0161
653.185	35.7144
656.078	9.61523
658.971	42.7432
661.863	33.3618
664.756	33.9326
667.649	11.9131
670.541	22.2671
673.434	8.16065
676.327	28.1943
679.22	31.4595
682.112	13.8081
685.005	10.4697
687.898	7.75928
690.79	18.6851
693.683	19.9829
696.576	20.0527
699.468	15.9121
702.361	5.32715
705.254	23.5986
708.146	35.5435
711.039	42.3931
713.932	45.0542
716.825	1.25195
719.717	15.706
722.61	14.1602
725.503	27.1519
728.395	22.3301
731.288	1.28125
734.181	35.1977
737.073	34.2871
739.966	55.5093
742.859	40.8608
745.751	33.1025
748.644	61.3008
751.537	78.0019
754.43	51.9463
757.322	27.5791
760.215	30.9492
763.108	17.8604
766	10.5244
768.893	17.4404
771.786	8.7168
774.678	22.5928
777.571	4.33496
780.464	6.04981
783.357	13.7832
786.249	27.5088
789.142	14.9404
792.035	15.6709
794.927	3.70996
797.82	32.7168
800.713	54.2168
803.606	33.9707
806.498	32.6914
809.391	97.3965
812.284	103.759
815.176	65.4688
818.069	76.8662
820.962	18.1221
823.854	16.8174
826.747	25.873
829.64	43.5244
832.533	46.3672
835.425	43.9648
838.318	61.9199
841.211	32.3174
844.103	44.5107
846.996	43.8076
849.889	51.9463
852.781	26.5049
855.674	33.8984
858.567	34.2861
861.46	27.5166
864.352	46.8174
867.245	46.4307
870.138	2.67578
873.03	31.7939
875.923	34.4668
878.816	42.583
881.708	31.6162
884.601	42.6367
887.494	31.1875
890.386	25.0752
893.279	32.251
896.172	28.9268
899.065	13.169
901.957	12.7334
904.85	9.5459
907.743	44.1885
910.635	4.49121
913.528	26.1406
916.421	17.0625
919.313	12.498
922.206	22.4492
925.099	22.5352
927.992	2.09766
930.884	7.75586
933.777	5.96484
936.67	0.697266
939.562	21.7734
942.455	36.7441
945.348	24.6826
948.24	20.6777
951.133	25.3184
954.026	34.1592
956.919	39.9365
959.811	16.207
962.704	10.1797
965.597	12.5068
968.489	8.22168
971.382	24.6113
974.275	19.8896
977.168	20.6191
980.06	28.4609
982.953	18.3398
985.846	0.709961
988.738	19.1953
991.631	50.4844
994.524	55.0586
997.416	4.06152
1000.31	58.249
1003.2	34.6406
1006.09	28.5986
1008.99	2.27246
1011.88	4.12402
1014.77	15.6045
1017.66	8.45703
1020.56	47.3877
1023.45	36.7695
1026.34	8.32129
1029.24	0.257813
1032.13	38.4678
1035.02	29.5957
1037.91	33.959
1040.81	41.0147
1043.7	26.2314
1046.59	12.083
1049.48	26.0771
1052.38	36.7363
1055.27	54.2705
1058.16	77.6103
1061.06	30.6719
1063.95	59.0693
1066.84	3.85644
1069.73	24.7578
1072.63	4.00879
1075.52	4.48144
1078.41	17.2666
1081.31	24.7627
1084.2	5.74902
1087.09	23.876
1089.98	29.209
1092.88	50.9463
1095.77	56.0039
1098.66	42.7051
1101.55	40.4922
1104.45	53.5869
1107.34	23.0615
1110.23	47.666
1113.12	52.3223
1116.02	33.4678
1118.91	56.8935
1121.8	44.0566
1124.69	69.0488
1127.59	44.331
1130.48	31.3369
1133.37	17.6699
1136.27	52.1328
1139.16	43.1113
1142.05	75.1016
1144.94	56.29
1147.84	16.2002
1150.73	17.3828
1153.62	15.8047
1156.52	7.22852
1159.41	20.9541
1162.3	49.3076
1165.19	29.2461
1168.09	25.3643
1170.98	42.6484
1173.87	72.5254
1176.76	48.3603
1179.66	43.7676
1182.55	24.2305
1185.44	29.8633
1188.33	85.6064
1191.23	57.1592
1194.12	32.085
1197.01	35.7812
1199.9	32.9629
1202.8	61.9668
1205.69	27.4668
1208.58	10.1836
1211.48	24.208
1214.37	47.7295
1217.26	21.2617
1220.15	8.49414
1223.05	43.6035
1225.94	20.2754
1228.83	31.7324
1231.72	4.21094
1234.62	69.501
1237.51	54.1846
1240.4	34.3594
