Measurement: Raman, 532 nm, unoriented, Raman Data Processed
Mineral: Milarite
Rruff sample: R070373
Ideal chemistry: KCa_2_(Be_2_AlSi_12_O_30_)H_2_O
Locality: Guanajuato, Mexico
Source: Royal Ontario Museum
Description: Pale yellow-green hexagonal fragment associated with calcite
Measured chemistry: (K_1.00_Na_0.03_)_Σ=1.03_(Ca_1.98_Mn_0.02_)_Σ=2_(Be_2.00_Al_1.00_)_Σ=3_(Si_11.97_Al_0.03_)_Σ=12_O_30_·H_2_O; H_2_O assumed ideal from stoichiometry; BeO estimated by difference
Raman shift (cm-1)	intensity
203.659	0
206.552	334.281
209.444	618.672
212.337	395.625
215.23	32.125
218.122	672.219
221.015	295.828
223.908	650.672
226.8	1213.14
229.693	902.719
232.586	918.906
235.479	1001.25
238.371	852.281
241.264	1579.81
244.157	1504.19
247.049	1507.14
249.942	1547.77
252.835	1308.69
255.727	1518.39
258.62	1529.95
261.513	1810.61
264.406	2394.86
267.298	2458.61
270.191	2795.25
273.084	2221.64
275.976	2471.28
278.869	2883.12
281.762	3886.25
284.655	4569.59
287.547	4855.81
290.44	3557.28
293.333	1984.59
296.225	1137.34
299.118	1097.02
302.011	726.625
304.904	1059.77
307.796	686.297
310.689	969.266
313.582	802.75
316.474	623.859
319.367	1020.34
322.26	1182.64
325.152	1282.31
328.045	1082.16
330.938	297.578
333.83	386.766
336.723	568.203
339.616	307.844
342.509	218.734
345.401	268.875
348.294	121.406
351.187	253.406
354.079	9.82812
356.972	225.672
359.865	119.766
362.757	338.938
365.65	14.0312
368.543	757.656
371.436	90.5938
374.328	565.562
377.221	501.969
380.114	565.125
383.006	1156.53
385.899	236.188
388.792	380.562
391.685	689.906
394.577	53.8438
397.47	338.594
400.363	267.719
403.255	42.2188
406.148	26.8438
409.041	151.812
411.933	310.812
414.826	501.781
417.719	120.094
420.611	109.844
423.504	14.7812
426.397	363.344
429.29	222.312
432.182	368.125
435.075	780.625
437.968	1128.66
440.86	442.125
443.753	870.156
446.646	590.469
449.538	1147.34
452.431	1437
455.324	1562.38
458.217	1844.88
461.109	2179.38
464.002	2081.19
466.895	2858.94
469.787	3647.44
472.68	4811.66
475.573	7095.81
478.466	6512.75
481.358	4598.47
484.251	2526.56
487.144	1522.78
490.036	761.062
492.929	382.812
495.822	367.562
498.714	34.1562
501.607	877.281
504.5	273.031
507.393	113.281
510.285	163.062
513.178	137.969
516.071	216.312
518.963	333.781
521.856	691.094
524.749	874.094
527.641	718.594
530.534	1540.75
533.427	1472.03
536.32	1573.06
539.212	1392.84
542.105	1380.66
544.998	1228.38
547.89	745.188
550.783	620.094
553.676	560.156
556.568	534.562
559.461	420.594
562.354	652.688
565.247	480.781
568.139	252.219
571.032	239.812
573.925	101.281
576.817	185.406
579.71	47.4375
582.603	154.719
585.495	220.625
588.388	356.562
591.281	334.531
594.174	84.75
597.066	2.21875
599.959	268.844
602.852	317.531
605.744	572.625
608.637	466.531
611.53	486.312
614.423	987.938
617.315	539.906
620.208	327.344
623.101	986.219
625.993	881.062
628.886	531.312
631.779	959.469
634.671	729.344
637.564	607.312
640.457	839.406
643.35	859.5
646.242	1324.69
649.135	1341.28
652.028	1221.97
654.92	1228.06
657.813	1262.72
660.706	1055.38
663.598	789.844
666.491	692.594
669.384	668.281
672.277	555.906
675.169	873.688
678.062	454.906
680.955	697.281
683.847	419.438
686.74	606.094
689.633	328.812
692.525	720.562
695.418	220.688
698.311	209.562
701.204	588.094
704.096	14.0312
706.989	233.594
709.882	291.031
712.774	349.625
715.667	704.531
718.56	76.1875
721.452	14.4375
724.345	137.844
727.238	387.5
730.131	368.5
733.023	286.062
735.916	156.75
738.809	216.406
741.701	595.031
744.594	33.625
747.487	9.15625
750.38	658.938
753.272	482.594
756.165	519.469
759.058	97.5
761.95	122.938
764.843	936.25
767.736	121.594
770.628	224.812
773.521	39.9062
776.414	712.062
779.307	267.469
782.199	329.719
785.092	164.156
787.985	989.062
790.877	462.844
793.77	294.969
796.663	538.25
799.555	230.812
802.448	468.656
805.341	192.344
808.234	826.188
811.126	107.562
814.019	625.156
816.912	1026.44
819.804	741.938
822.697	744.625
825.59	328
828.482	784.688
831.375	241.281
834.268	1016.72
837.16	331.406
840.053	57.75
842.946	711.031
845.839	366.562
848.731	291.844
851.624	94.7188
854.517	422.438
857.409	448.312
860.302	509.156
863.195	36.75
866.087	699.062
868.98	480.094
871.873	13.8438
874.766	486.312
877.658	617.188
880.551	262.531
883.444	81.5625
886.337	585.844
889.229	359.906
892.122	639.969
895.015	638.719
897.907	641.594
900.8	802.375
903.693	606.125
906.585	243.844
909.478	87.9688
912.371	743.031
915.264	682.688
918.156	457.312
921.049	808.969
923.942	466.594
926.834	355.469
929.727	86.9062
932.62	724.156
935.512	517.219
938.405	264.094
941.298	697.125
944.191	381.562
947.083	811.156
949.976	302.656
952.869	307.312
955.761	628.125
958.654	363.469
961.547	540.375
964.439	245.969
967.332	373.562
970.225	237.594
973.117	769.406
976.01	247.719
978.903	728.375
981.796	874.25
984.688	163.5
987.581	640.062
990.474	697.656
993.366	752.531
996.259	544.5
999.152	1179.38
1002.04	746.844
1004.94	1102.59
1007.83	632.406
1010.72	343.188
1013.62	751.312
1016.51	593.938
1019.4	771.188
1022.29	742.969
1025.19	934.969
1028.08	841.031
1030.97	809.656
1033.86	248
1036.76	264.875
1039.65	350.969
1042.54	252.75
1045.43	961
1048.33	908.719
1051.22	153.656
1054.11	551.344
1057.01	372.5
1059.9	182.5
1062.79	115.875
1065.68	430.281
1068.58	391.219
1071.47	306.031
1074.36	118.625
1077.26	714.594
1080.15	704.5
1083.04	724.906
1085.93	475.156
1088.83	1187.78
1091.72	301.062
1094.61	345.25
1097.5	542.969
1100.4	817.938
1103.29	729.219
1106.18	320.031
1109.07	688.344
1111.97	760.781
1114.86	1638.97
1117.75	1299.25
1120.64	1926.53
1123.54	1945.47
1126.43	2166.53
1129.32	1257.22
1132.22	1220.69
1135.11	588.562
1138	557.719
1140.89	918.375
1143.79	350.375
1146.68	905.031
1149.57	730.625
1152.46	483.375
1155.36	47.2188
1158.25	785.469
1161.14	655.812
1164.04	47.9688
1166.93	870.219
1169.82	429.094
1172.71	314
1175.61	668.75
1178.5	202.125
1181.39	66.125
1184.29	586.844
1187.18	428.688
1190.07	172.656
1192.96	514.094
1195.86	193.375
1198.75	209.938
1201.64	431.531
1204.53	687.156
1207.43	220.906
1210.32	557.688
1213.21	620.109
1216.1	466.797
1219	511.094
1221.89	320.828
1224.78	143.734
1227.67	218.688
1230.57	469.688
1233.46	83.8594
1236.35	420.297
1239.25	369.219
1242.14	538.109
1245.03	139.578
1247.92	338.141
1250.82	155.703
1253.71	593.594
1256.6	90.2344
1259.49	674.281
1262.39	195.844
1265.28	541.734
1268.17	553.266
1271.07	867.359
1273.96	727.734
1276.85	918.969
1279.74	502.719
1282.64	824.281
1285.53	601.422
1288.42	425.375
1291.32	441.25
1294.21	399.078
1297.1	409.094
1299.99	440.922
1302.88	404.188
1305.78	311.984
1308.67	554.562
