Measurement: Raman, 532 nm, unoriented, Raman Data Processed
Mineral: Milarite
Rruff sample: R070464
Ideal chemistry: KCa_2_(Be_2_AlSi_12_O_30_)H_2_O
Locality: Rössing Mine, Arandis, Swakopmund District, Namibia
Source: Michael Scott
Description: Fragments from a pale yellow green hexagonal prism
Measured chemistry: (K_1.11_Na_0.21_)_Σ=1.32_Ca_2.00_(Be_2.36_Al_0.64_)_Σ=3_Si_12.00_O_30_·H_2_O; H_2_O assumed ideal from stoichiometry; BeO estimated by difference
Raman shift (cm-1)	intensity
165.101	0
167.994	75.2695
170.886	29.1523
173.779	364.852
176.672	500.965
179.565	299.258
182.457	168.031
185.35	149.953
188.243	227.5
191.135	274.043
194.028	308.258
196.921	108.434
199.813	186.242
202.706	179.922
205.599	29.707
208.492	197.359
211.384	149.496
214.277	4.73047
217.17	76.5352
220.062	99.082
222.955	90.0703
225.848	268.691
228.74	311.203
231.633	493.981
234.526	226.086
237.418	131.434
240.311	37.8438
243.204	250.473
246.097	231.352
248.989	289.734
251.882	291.188
254.775	299.574
257.667	316.992
260.56	264.926
263.453	468.644
266.346	657.703
269.238	750.453
272.131	896.438
275.024	816.375
277.916	929.504
280.809	1175.43
283.702	1534.33
286.594	1867.71
289.487	1751.79
292.38	1082.34
295.272	556.312
298.165	309.398
301.058	44.8281
303.951	38.3867
306.843	47.625
309.736	183.836
312.629	188.191
315.522	333.027
318.414	325.43
321.307	506.625
324.2	642.547
327.092	582.371
329.985	236.766
332.878	156.324
335.77	82.832
338.663	310.523
341.556	149.348
344.449	144.285
347.341	14.4922
350.234	78.7969
353.127	518.535
356.019	333.926
358.912	207.199
361.805	109.734
364.697	140.875
367.59	99.375
370.483	50.3008
373.375	128.535
376.268	379.133
379.161	425.406
382.054	341
384.946	132.012
387.839	180.879
390.732	207.504
393.624	50.5234
396.517	164.281
399.41	50.9062
402.303	25.3555
405.195	146.375
408.088	80.2773
410.981	303.961
413.873	77.2656
416.766	113.332
419.659	36.6016
422.551	192.566
425.444	34.543
428.337	302.941
431.229	83.7422
434.122	293.266
437.015	435.488
439.908	350.594
442.8	328.957
445.693	269.398
448.586	456.988
451.478	556.078
454.371	608.305
457.264	773.242
460.156	884.324
463.049	652.414
465.942	901.805
468.835	1046.93
471.727	1490.28
474.62	1837.77
477.513	2206.45
480.405	2603.78
483.298	1852.59
486.191	1347.35
489.084	716.266
491.976	285.277
494.869	126.922
497.762	231.887
500.654	154.582
503.547	37.8398
506.44	17.4258
509.332	189.836
512.225	279.727
515.118	256.781
518.011	265.527
520.903	451.207
523.796	358.031
526.689	443.816
529.581	718.398
532.474	907.523
535.367	1021.34
538.26	904.523
541.152	607.449
544.045	772.719
546.938	713.156
549.83	675.648
552.723	674.5
555.616	541.894
558.508	290.793
561.401	314.039
564.294	239.809
567.187	281.231
570.079	396.141
572.972	537.32
575.865	546.977
578.757	178.894
581.65	36.3945
584.543	24.5977
587.435	29.2969
590.328	123.176
593.221	159.133
596.114	195.773
599.006	142.422
601.899	59.3789
604.792	296.754
607.684	253.621
610.577	250.356
613.47	104.535
616.362	11.8594
619.255	1.24609
622.148	11.9727
625.04	45.7461
627.933	78.4883
630.826	41.5273
633.719	81.6523
636.611	38.1484
639.504	4.46875
642.397	17.3984
645.289	39.543
648.182	172.582
651.075	164.481
653.967	205.664
656.86	256.973
659.753	281.273
662.646	285.523
665.538	296.988
668.431	400.789
671.324	255.984
674.216	388.859
677.109	495.75
680.002	408.894
682.894	306.312
685.787	299.356
688.68	425.828
691.573	314.406
694.465	292.836
697.358	238.508
700.251	282.812
703.143	350.609
706.036	469.738
708.929	191.473
711.822	219
714.714	24.8633
717.607	311.242
720.5	168.68
723.392	19.75
726.285	76.0547
729.178	223.555
732.07	259.918
734.963	223.098
737.856	140.356
740.749	270.066
743.641	421.742
746.534	298.121
749.427	320.18
752.319	271.144
755.212	72.0586
758.105	282.449
760.997	208.098
763.89	179.781
766.783	55.2539
769.676	145.508
772.568	202.281
775.461	207.074
778.354	116.309
781.246	164.055
784.139	231.641
787.032	407.75
789.924	98.1406
792.817	143.242
795.71	34.8516
798.602	18.3789
801.495	91.6914
804.388	87.4062
807.281	94.1758
810.173	61.9219
813.066	215.25
815.959	8.83594
818.851	78.6602
821.744	7.16406
824.637	308.887
827.529	316.742
830.422	336.684
833.315	27.0938
836.208	102.266
839.1	188.098
841.993	214.012
844.886	212.344
847.779	321.312
850.671	400.934
853.564	332.867
856.457	252.723
859.349	345.441
862.242	348.887
865.135	391.891
868.027	442.914
870.92	444.297
873.813	205.078
876.706	490.273
879.598	405.953
882.491	337.078
885.384	346.25
888.276	199.461
891.169	340.59
894.062	348.356
896.954	170.168
899.847	15.0195
902.74	121.387
905.633	219.469
908.525	415.113
911.418	229.602
914.311	224.422
917.203	210.262
920.096	214.918
922.989	166.848
925.881	189.309
928.774	115.082
931.667	169.047
934.559	179.984
937.452	23.5703
940.345	9.86719
943.238	93.0391
946.13	63.2812
949.023	158.852
951.916	19.6523
954.808	8.83203
957.701	21.3828
960.594	211.637
963.486	371.051
966.379	232.398
969.272	379.977
972.165	240.394
975.057	298.492
977.95	177.297
980.843	77.9414
983.735	14.2305
986.628	278.867
989.521	199.418
992.413	320.231
995.306	184.043
998.199	140.723
1001.09	242.086
1003.98	211.754
1006.88	325.41
1009.77	327.566
1012.66	364.676
1015.55	223.113
1018.45	41.6445
1021.34	4.88281
1024.23	92.4258
1027.13	254.531
1030.02	407.504
1032.91	310.043
1035.8	16.6875
1038.7	25.7773
1041.59	40.582
1044.48	10.0156
1047.38	212.715
1050.27	141.801
1053.16	87.4922
1056.05	49.4766
1058.95	28.4258
1061.84	108.727
1064.73	332.504
1067.62	479.734
1070.52	367.816
1073.41	358.016
1076.3	99.1641
1079.19	187.031
1082.09	147.144
1084.98	128.769
1087.87	156.035
1090.77	201.961
1093.66	140.148
1096.55	291.734
1099.44	185.469
1102.34	196.906
1105.23	12.8867
1108.12	14.9258
1111.01	201.523
1113.91	402.023
1116.8	537.156
1119.69	576.793
1122.59	585.066
1125.48	655.93
1128.37	667.231
1131.26	543.812
1134.16	378.086
1137.05	417.664
1139.94	280.008
1142.83	265.789
1145.73	245.195
1148.62	182.545
1151.51	126.025
1154.4	164.307
1157.3	170.492
1160.19	21.4883
1163.08	135.228
1165.98	110.428
1168.87	141.453
1171.76	181.045
1174.65	104.24
1177.55	147.562
1180.44	197.857
1183.33	357.684
1186.22	215.438
1189.12	146.674
1192.01	235.002
1194.9	192.06
1197.8	254.348
1200.69	172.826
1203.58	101.377
1206.47	68.9316
1209.37	0.025391
1212.26	2.29102
1215.15	179.688
1218.04	272.478
1220.94	474.275
1223.83	507.297
1226.72	283.228
1229.62	229.875
1232.51	34.4316
1235.4	100.881
1238.29	210.207
1241.19	106.408
1244.08	23.791
1246.97	109.352
1249.86	125.834
1252.76	120.873
1255.65	87.5137
1258.54	13.541
1261.43	16.248
1264.33	8.36328
