Measurement: Raman, 785 nm, unoriented, Raman Data Processed
Mineral: Millerite
Rruff sample: R070323
Ideal chemistry: NiS
Locality: Keokuk area, Lee County, Iowa, USA
Source: James Shigley
Description: Bronze colored metallic fibers associated with chalcopyrite and quartz
Measured chemistry: (Ni_0.97_Fe_0.02_Co_0.01_)_Î£=1_S_1.00_
Raman shift (cm-1)	intensity
167.785	0
170.677	36.5275
173.57	92.7217
176.463	100.324
179.356	22.472
182.248	1.35718
185.141	22.7629
188.034	76.1508
190.926	66.5472
193.819	58.7293
196.712	35.2069
199.604	12.1783
202.497	29.0406
205.39	40.0853
208.282	6.78686
211.175	6.49475
214.068	23.019
216.961	0.736084
219.853	33.821
222.746	53.6228
225.639	123.265
228.531	138.021
231.424	195.635
234.317	215.29
237.209	257.276
240.102	335.392
242.995	551.098
245.888	565.927
248.78	295.016
251.673	127.759
254.566	69.2534
257.458	6.78674
260.351	13.1577
263.244	9.474
266.137	15.7969
269.029	12.2837
271.922	61.0508
274.815	78.9127
277.707	105.121
280.6	140.823
283.493	153.7
286.385	136.539
289.278	152.928
292.171	167.385
295.063	173.93
297.956	200.321
300.849	163.462
303.742	149.636
306.634	90.1904
309.527	49.981
312.42	31.8481
315.312	40.5587
318.205	9.92151
321.098	8.64136
323.99	14.2227
326.883	13.9547
329.776	18.0693
332.669	2.13489
335.561	27.1702
338.454	39.6276
341.347	85.5488
344.239	102.132
347.132	127.263
350.025	123.528
352.918	128.966
355.81	80.5383
358.703	68.5086
361.596	62.9001
364.488	91.8603
367.381	79.455
370.274	75.3539
373.166	51.2393
376.059	68.832
378.952	29.5152
381.844	35.6064
384.737	31.0706
387.63	47.5629
390.523	19.164
393.415	28.1973
396.308	47.0662
399.201	18.2792
402.093	6.76917
404.986	49.4727
407.879	6.67871
410.772	27.6065
413.664	34.9022
416.557	23.733
419.45	44.2929
422.342	27.3581
425.235	18.2604
428.128	43.4171
431.02	18.2457
433.913	21.8242
436.806	52.2639
439.699	8.22461
442.591	39.2469
445.484	12.6511
448.377	28.2637
451.269	31.22
454.162	37.827
457.055	33.5442
459.947	23.906
462.84	48.0283
465.733	10.7108
468.625	30.2006
471.518	18.3227
474.411	37.7774
477.304	18.9512
480.196	18.7965
483.089	15.0389
485.982	43.9952
488.874	32.7291
491.767	26.6642
494.66	29.5096
497.553	42.9258
500.445	43.936
503.338	2.10492
506.231	13.7692
509.123	13.2177
512.016	4.08936
514.909	11.7128
517.802	4.34259
520.694	18.8232
523.587	27.8217
526.48	8.01837
529.372	15.0861
532.265	0.871338
535.158	31.9051
538.05	23.2162
540.943	34.5274
543.836	0.582764
546.729	12.7119
549.621	38.113
552.514	40.0696
555.407	33.6121
558.299	13.036
561.192	15.5616
564.085	48.4968
566.977	27.671
569.87	13.7966
572.763	15.1276
575.655	33.3514
578.548	57.1649
581.441	22.271
584.333	21.2506
587.226	31.4977
590.119	23.8748
593.012	44.7803
595.904	43.6262
598.797	28.9182
601.69	16.7258
604.582	17.6804
607.475	27.3882
610.368	25.7979
613.26	17.4854
616.153	17.8685
619.046	27.0979
621.939	40.0511
624.831	41.0469
627.724	9.32562
630.617	35.1276
633.509	7.66852
636.402	14.6516
639.295	36.2648
642.188	3.89148
645.08	30.568
647.973	30.985
650.866	31.1072
653.758	12.4505
656.651	19.1512
659.544	1.97516
662.436	0.362061
665.329	45.9963
668.222	4.54022
671.115	31.5775
674.007	60.4781
676.9	2.88483
679.793	7.00525
682.685	25.4827
685.578	38.9257
688.471	3.24383
691.363	26.8224
694.256	25.225
697.149	18.6686
700.042	0.999207
702.934	22.9045
705.827	12.0322
708.72	7.86175
711.612	49.6258
714.505	11.5746
717.398	25.4842
720.29	36.3514
723.183	26.9611
726.076	8.54456
728.968	13.1658
731.861	31.0621
734.754	28.899
737.647	4.10229
740.539	20.4857
743.432	38.5717
746.325	42.5646
749.217	27.2164
752.11	12.0771
755.003	20.8599
757.895	32.8175
760.788	8.35529
763.681	26.0751
766.574	21.7261
769.466	29.6174
772.359	12.9691
775.252	42.9053
778.144	5.72302
781.037	46.3426
783.93	27.3615
786.822	25.9137
789.715	47.4633
792.608	50.0414
795.501	30.9864
798.393	12.7904
801.286	11.657
804.179	7.52454
807.071	0.071289
809.964	33.1637
812.857	47.0773
815.75	29.345
818.642	49.0809
821.535	36.185
824.428	49.5538
827.32	41.8939
830.213	22.1238
833.106	0.694702
835.998	33.1438
838.891	32.13
841.784	35.606
844.677	3.30115
847.569	31.6649
850.462	13.7209
853.355	23.0959
856.247	22.7418
859.14	63.1368
862.033	44.1617
864.925	23.8336
867.818	10.8843
870.711	24.4879
873.604	24.4144
876.496	23.1067
879.389	6.45624
882.282	23.2229
885.174	19.4261
888.067	21.9036
890.96	24.4516
893.852	41.6919
896.745	19.2444
899.638	25.6329
902.53	40.1724
905.423	22.1761
908.316	11.5086
911.209	3.67041
914.101	27.8164
916.994	55.4053
919.887	13.7927
922.779	9.22327
925.672	17.1652
928.565	13.3266
931.457	32.5703
934.35	36.5168
937.243	2.16815
940.136	16.1882
943.028	2.89972
945.921	26.9282
948.814	13.4142
951.706	26.4813
954.599	22.8854
957.492	7.88965
960.385	22.1338
963.277	19.889
966.17	23.5435
969.063	6.48584
971.955	30.7001
974.848	34.3232
977.741	41.9938
980.633	21.795
983.526	12.2908
986.419	43.1891
989.312	0.320679
992.204	4.83575
995.097	18.397
997.99	11.7725
1000.88	13.1604
1003.77	37.2667
1006.67	15.4409
1009.56	6.07562
1012.45	36.8768
1015.35	47.6542
1018.24	15.7602
1021.13	47.9796
1024.02	42.0937
1026.92	60.5518
1029.81	39.6117
1032.7	39.7743
1035.6	7.02942
1038.49	17.7631
1041.38	30.3303
1044.27	34.9292
1047.17	36.6589
1050.06	25.7107
1052.95	16.1614
1055.84	53.3408
1058.74	26.3064
1061.63	40.9932
1064.52	26.3593
1067.41	34.3158
1070.31	7.78137
1073.2	0.141235
1076.09	14.2266
1078.98	33.3727
1081.88	54.2258
1084.77	25.2199
1087.66	26.8463
1090.56	28.1968
1093.45	39.5982
1096.34	11.6288
1099.23	38.7181
1102.13	40.4578
1105.02	41.6805
1107.91	25.7066
1110.81	29.3459
1113.7	21.795
1116.59	41.9324
1119.48	24.4008
1122.38	10.5408
1125.27	32.3203
1128.16	29.1478
1131.05	39.8937
1133.95	10.7907
1136.84	21.5727
1139.73	21.4954
1142.62	38.6184
1145.52	20.9373
1148.41	10.798
1151.3	1.31397
1154.19	49.1215
1157.09	10.899
1159.98	11.6556
1162.87	51.5965
1165.77	17.7001
1168.66	7.80511
1171.55	18.8714
1174.44	24.53
1177.34	35.5363
1180.23	19.1492
1183.12	33.345
1186.02	36.0838
1188.91	19.1176
1191.8	25.1527
1194.69	22.9038
1197.59	41.4966
1200.48	44.3205
1203.37	36.9826
1206.26	10.2543
1209.16	8.66455
1212.05	6.55933
1214.94	47.5679
1217.84	21.3932
1220.73	45.3451
1223.62	21.4575
1226.51	1.60913
1229.41	5.76099
