Measurement: Raman, 532 nm, unoriented, Raman Data Processed
Mineral: Millerite
Rruff sample: R080122
Ideal chemistry: NiS
Locality: Eugenia mine, Bellmunt del Priorat, Tarragona, Catalonia, Spain
Source: Joan Abella i Creus
Description: Metallic-bronze striated crystals
Raman shift (cm-1)	intensity
135.363	0
138.737	3.94612
142.112	0.047988
145.487	1.05997
148.862	1.31346
152.237	2.28173
155.612	1.58481
158.986	0.490179
162.361	0.388971
165.736	0.479931
169.111	0.357231
172.486	0.315494
175.86	0.484242
179.235	0.051139
182.61	0.004493
185.985	0.049239
189.36	0.092216
192.734	0.129617
196.109	0.362224
199.484	0.190344
202.859	0.115924
206.234	0.009152
209.608	0.505767
212.983	0.521564
216.358	0.793653
219.733	0.603288
223.108	0.8864
226.483	1.0603
229.857	2.42238
233.232	2.51283
236.607	2.377
239.982	3.47071
243.357	4.08479
246.732	7.25456
250.106	8.99954
253.481	4.15009
256.856	2.22612
260.231	1.14212
263.606	0.839647
266.98	0.166455
270.355	0.334017
273.73	0.358007
277.105	0.062143
280.48	0.733493
283.854	0.896665
287.229	1.1276
290.604	1.46245
293.979	2.18937
297.354	3.17912
300.729	3.68198
304.103	3.95163
307.478	2.99128
310.853	1.76789
314.228	1.03783
317.603	0.36003
320.978	0.263293
324.352	0.272042
327.727	0.089933
331.102	0.454012
334.477	1.09721
337.851	1.41038
341.226	2.12727
344.601	3.25418
347.976	4.38125
351.351	5.69543
354.726	5.52171
358.1	4.29458
361.475	3.05215
364.85	2.29103
368.225	3.59208
371.6	4.22376
374.974	5.04209
378.349	3.86828
381.724	2.22208
385.099	0.875582
388.474	0.530609
391.849	0.439435
395.223	0.140952
398.598	0.183986
401.973	0.047372
405.348	0.019324
408.723	0.381074
412.098	0.068905
415.472	0.034457
418.847	0.028508
422.222	0.230549
425.597	0.40041
428.972	0.15236
432.346	0.165579
435.721	0.175828
439.096	0.363747
442.471	0.275963
445.846	0.093644
449.221	0.532436
452.595	0.358707
455.97	0.302553
459.345	0.425224
462.72	0.484129
466.095	0.450522
469.469	0.209106
472.844	0.464532
476.219	0.208654
479.594	0.597674
482.969	0.272751
486.344	0.506138
489.718	0.417147
493.093	0.273117
496.468	0.381848
499.843	0.0429
503.218	0.092201
506.592	0.305951
509.967	0.688106
513.342	0.349478
516.717	0.213529
520.092	0.154398
523.466	0.18569
526.841	0.040716
530.216	0.258929
533.591	0.145541
536.966	0.240861
540.341	0.326546
543.715	0.215322
547.09	0.211921
550.465	0.101403
553.84	0.2528
557.215	0.234352
560.59	0.346847
563.964	0.085871
567.339	0.290433
570.714	0.199154
574.089	0.194361
577.464	0.439762
580.838	0.213959
584.213	0.244228
587.588	0.304651
590.963	0.447211
594.338	0.048856
597.712	0.574125
601.087	0.245378
604.462	0.028295
607.837	0.190576
611.212	0.015249
614.587	0.229759
617.961	0.225925
621.336	0.418062
624.711	0.013211
628.086	0.064165
631.461	0.45528
634.835	0.053035
638.21	0.378444
641.585	0.470747
644.96	0.233031
648.335	0.114092
651.71	0.340846
655.084	0.273435
658.459	0.209634
661.834	0.567918
665.209	0.489722
668.584	0.52071
671.958	0.179286
675.333	0.463631
678.708	0.19753
682.083	0.128271
685.458	0.349167
688.832	0.223278
692.207	0.046127
695.582	0.025875
698.957	0.249975
702.332	0.304639
705.707	0.141622
709.081	0.12258
712.456	0.281208
715.831	0.273002
719.206	0.099573
722.581	0.297736
725.955	0.101813
729.33	0.081688
732.705	0.091028
736.08	0.061612
739.455	0.116138
742.83	0.101539
746.204	0.106329
749.579	0.113412
752.954	0.345057
756.329	0.138171
759.704	0.089586
763.078	0.121119
766.453	0.252448
769.828	0.380193
773.203	0.485656
776.578	0.034068
779.952	0.101438
783.327	0.337515
786.702	0.304608
790.077	0.448646
793.452	0.256385
796.827	0.385685
800.201	0.476912
803.576	0.580981
806.951	0.680028
810.326	0.631259
813.701	0.805649
817.076	0.292623
820.45	0.587843
823.825	0.551769
827.2	0.566608
830.575	0.791615
833.95	0.776008
837.324	0.760316
840.699	0.860355
844.074	0.678279
847.449	0.589162
850.824	0.685561
854.198	0.921172
857.573	0.860693
860.948	0.548412
864.323	0.78421
867.698	0.782063
871.073	0.726089
874.447	0.727685
877.822	0.680121
881.197	0.983542
884.572	0.67992
887.947	0.575996
891.322	0.478829
894.696	0.18217
898.071	0.04566
901.446	0.38331
904.821	0.507395
908.196	0.178877
911.57	0.089621
914.945	0.232884
918.32	0.191597
921.695	0.390389
925.07	0.0451
928.444	0.107337
931.819	0.210473
935.194	0.077753
938.569	0.046896
941.944	0.113073
945.318	0.382013
948.693	0.160451
952.068	0.145387
955.443	0.15824
958.818	0.325812
962.193	0.327198
965.567	0.166458
968.942	0.186197
972.317	0.257263
975.692	0.12644
979.067	0.369225
982.442	0.211508
985.816	0.44823
989.191	0.320225
992.566	0.457461
995.941	0.126278
999.316	0.198639
1002.69	0.053702
1006.07	0.215655
1009.44	0.098433
1012.82	0.226511
1016.19	0.294422
1019.57	0.416425
1022.94	0.436532
1026.31	0.464639
1029.69	0.488208
1033.06	0.402902
1036.44	0.305875
1039.81	0.532014
1043.19	0.743655
1046.56	0.536306
1049.94	0.531364
1053.31	0.604928
1056.69	0.605613
1060.06	0.525758
1063.44	0.079379
1066.81	0.382096
1070.19	0.412491
1073.56	0.075955
1076.94	0.236037
1080.31	0.231238
1083.69	0.162632
1087.06	0.269739
1090.44	0.092174
1093.81	0.302771
1097.18	0.370462
1100.56	0.144357
1103.93	0.153987
1107.31	0.03184
1110.68	0.085168
1114.06	0.341736
1117.43	0.460889
1120.81	0.314969
1124.18	0.256414
1127.56	0.095293
1130.93	0.235483
1134.31	0.544136
1137.68	0.025797
1141.06	0.200801
1144.43	0.02562
1147.81	0.384511
1151.18	0.007058
1154.56	0.149774
1157.93	0.036467
1161.31	0.179766
1164.68	0.29801
1168.06	0.041822
1171.43	0.071789
1174.81	0.228202
1178.18	0.077487
1181.56	0.442487
1184.93	0.387172
1188.31	0.282461
1191.68	0.01529
1195.06	0.402161
1198.43	0.170519
1201.81	0.24549
1205.18	0.380947
1208.55	0.150064
1211.93	0.378738
1215.3	0.17609
1218.68	0.178285
1222.05	0.243153
1225.43	0.381476
1228.8	0.049325
1232.18	0.316554
1235.55	0.312588
1238.93	0.398239
1242.3	0.151233
1245.68	0.218275
1249.05	0.016728
1252.43	0.181913
1255.8	0.288036
1259.18	0.233261
1262.55	0.077798
1265.93	0.238126
1269.3	0.159283
1272.68	0.200191
1276.05	0.439834
1279.42	0.151694
1282.8	0.350363
1286.17	0.33093
1289.55	0.349156
1292.92	0.109319
1296.3	0.093474
1299.67	0.215021
1303.05	0.000952
