Measurement: Raman, 532 nm, unoriented, Raman Data Processed
Mineral: Millerite
Rruff sample: R070323
Ideal chemistry: NiS
Locality: Keokuk area, Lee County, Iowa, USA
Source: James Shigley
Description: Bronze colored metallic fibers associated with chalcopyrite and quartz
Measured chemistry: (Ni_0.97_Fe_0.02_Co_0.01_)_Î£=1_S_1.00_
Raman shift (cm-1)	intensity
155.929	0
158.822	18.0311
161.715	26.139
164.607	33.4408
167.5	32.6976
170.393	45.1367
173.286	20.4772
176.178	19.5149
179.071	3.35693
181.964	9.97498
184.856	6.18494
187.749	23.3612
190.642	41.5408
193.535	68.6144
196.427	45.3367
199.32	49.2728
202.213	24.9568
205.105	39.2184
207.998	25.4296
210.891	6.30432
213.783	7.2478
216.676	2.15466
219.569	21.3944
222.462	25.8611
225.354	50.959
228.247	39.5895
231.14	42.5437
234.032	86.239
236.925	141.859
239.818	165.701
242.71	285.121
245.603	338.316
248.496	236.585
251.388	126.023
254.281	105.125
257.174	55.1405
260.067	56.874
262.959	46.2162
265.852	65.9268
268.745	80.9685
271.637	79.9952
274.53	115.156
277.423	157.375
280.315	183.169
283.208	212.375
286.101	221.519
288.994	218.01
291.886	269.437
294.779	301.287
297.672	322.087
300.564	308.312
303.457	262.402
306.35	150.03
309.243	116.021
312.135	42.4735
315.028	22.1869
317.921	6.47241
320.813	14.2565
323.706	10.068
326.599	36.7654
329.491	24.1116
332.384	1.24561
335.277	53.2467
338.17	94.5665
341.062	142.234
343.955	213.606
346.848	242.924
349.74	264.229
352.633	257.505
355.526	174.311
358.418	182.971
361.311	216.097
364.204	256.029
367.097	284.931
369.989	313.673
372.882	312.875
375.775	224.561
378.667	122.672
381.56	116.913
384.453	53.9534
387.346	22.7163
390.238	8.79956
393.131	28.3033
396.024	75.2162
398.916	36.7415
401.809	13.4921
404.702	13.0914
407.594	21.3079
410.487	26.9236
413.38	10.4646
416.272	12.1848
419.165	9.44275
422.058	31.0845
424.951	24.597
427.843	38.6912
430.736	5.05664
433.629	30.6959
436.521	6.02515
439.414	37.5618
442.307	18.2991
445.2	32.6384
448.092	48.2489
450.985	11.7382
453.878	43.1377
456.77	42.4791
459.663	42.0594
462.556	28.8447
465.448	53.5856
468.341	58.2338
471.234	45.5814
474.127	25.8018
477.019	39.1924
479.912	67.4828
482.805	110.449
485.697	74.675
488.59	92.3159
491.483	81.0577
494.375	70.0657
497.268	89.644
500.161	65.4598
503.053	39.0007
505.946	36.0939
508.839	41.6871
511.732	52.959
514.624	11.2593
517.517	13.5786
520.41	54.5656
523.302	32.8026
526.195	61.0985
529.088	24.6251
531.981	17.073
534.873	40.2804
537.766	37.9977
540.659	45.1466
543.551	9.22571
546.444	62.0233
549.337	55.1392
552.229	36.8838
555.122	47.8374
558.015	5.43396
560.908	2.34424
563.8	47.9563
566.693	49.9841
569.586	17.8035
572.478	20.313
575.371	9.12646
578.264	15.1928
581.156	4.84729
584.049	30.3754
586.942	13.793
589.835	31.5156
592.727	35.1885
595.62	22.1337
598.513	29.866
601.405	6.69568
604.298	29.286
607.191	28.316
610.083	27.4105
612.976	21.4528
615.869	17.9436
618.762	18.8137
621.654	19.3728
624.547	54.0123
627.44	57.5583
630.332	42.444
633.225	29.2905
636.118	27.7839
639.01	19.8185
641.903	16.053
644.796	30.5857
647.689	15.6395
650.581	52.3329
653.474	27.7731
656.367	22.0585
659.259	1.55066
662.152	38.7872
665.045	32.3942
667.938	23.8264
670.83	15.1831
673.723	29.413
676.616	23.3086
679.508	21.6844
682.401	2.19934
685.294	40.925
688.186	31.6104
691.079	32.7572
693.972	58.6075
696.865	31.0829
699.757	2.16553
702.65	33.7787
705.543	31.952
708.435	27.3213
711.328	14.0261
714.221	2.13574
717.113	21.9852
720.006	43.9198
722.899	37.8777
725.792	49.8337
728.684	37.0336
731.577	24.9449
734.47	33.7799
737.362	39.1198
740.255	0.819092
743.148	28.9081
746.04	44.7366
748.933	76.6228
751.826	48.7991
754.719	37.8501
757.611	52.1582
760.504	42.115
763.397	63.1128
766.289	38.7869
769.182	65.2659
772.075	38.5129
774.967	10.7842
777.86	25.0171
780.753	27.9385
783.646	16.7202
786.538	32.1782
789.431	25.3999
792.324	62.6621
795.216	4.03174
798.109	54.7451
801.002	44.5776
803.894	45.0549
806.787	0.818359
809.68	69.8091
812.573	40.5283
815.465	53.741
818.358	9.98657
821.251	35.7197
824.143	24.5576
827.036	18.3755
829.929	38.1619
832.822	23.0998
835.714	67.1252
838.607	3.05981
841.5	18.9531
844.392	54.7747
847.285	33.4692
850.178	3.72192
853.07	29.7839
855.963	32.7
858.856	25.6096
861.749	40.123
864.641	25.4839
867.534	19.2527
870.427	8.99316
873.319	0.091553
876.212	18.0615
879.105	8.80444
881.997	35.1633
884.89	14.3174
887.783	36.9841
890.676	11.4385
893.568	3.51221
896.461	38.3897
899.354	31.481
902.246	38.6807
905.139	23.9168
908.032	10.6003
910.924	42.2959
913.817	52.1511
916.71	7.58814
919.602	22.356
922.495	19.759
925.388	34.5288
928.281	17.4988
931.173	10.6348
934.066	10.9126
936.959	32.5803
939.851	26.5759
942.744	31.6228
945.637	38.4399
948.529	18.459
951.422	0.996094
954.315	55.7117
957.208	19.5435
960.1	51.8682
962.993	5.1936
965.886	53.0478
968.778	4.20019
971.671	28.2791
974.564	26.8108
977.457	28.6409
980.349	20.9194
983.242	6.63452
986.135	29.3225
989.027	17.0488
991.92	40.9773
994.813	27.5122
997.705	72.354
1000.6	40.6565
1003.49	48.8394
1006.38	6.93262
1009.28	85.5864
1012.17	85.6052
1015.06	119.385
1017.95	98.7771
1020.85	112.356
1023.74	187.927
1026.63	155.336
1029.53	80.0322
1032.42	97.3989
1035.31	20.3396
1038.2	33.1899
1041.1	53.4797
1043.99	57.4983
1046.88	33.1624
1049.77	29.2947
1052.67	28.7734
1055.56	22.1926
1058.45	3.99585
1061.35	6.53979
1064.24	11.6416
1067.13	50.0632
1070.02	15.9932
1072.92	33.3574
1075.81	16.9368
1078.7	22.2468
1081.59	20.7632
1084.49	37.739
1087.38	31.0662
1090.27	24.1457
1093.16	62.9558
1096.06	56.6292
1098.95	38.8481
1101.84	28.1089
1104.73	24.6404
1107.63	24.6553
1110.52	1.45337
1113.41	22.2331
1116.31	32.9294
1119.2	12.3901
1122.09	36.8132
1124.98	16.2737
1127.88	55.154
1130.77	40.6399
1133.66	26.9631
1136.56	24.4358
1139.45	23.3921
1142.34	37.9243
1145.23	1.15576
1148.13	2.31201
1151.02	33.9746
1153.91	79.2463
1156.8	28.0066
1159.7	47.8066
1162.59	4.19824
1165.48	9.52002
1168.38	72.2083
1171.27	18.0864
1174.16	79.2039
1177.05	25.7749
1179.95	14.8364
1182.84	30.4802
1185.73	82.2417
1188.62	31.8716
1191.52	48.6233
1194.41	67.7449
1197.3	1.98657
1200.19	44.77
1203.09	33.9873
1205.98	58.1921
1208.87	26.8359
1211.77	32.8591
1214.66	27.4541
1217.55	37.6465
1220.44	4.37817
1223.34	66.7044
1226.23	21.4565
1229.12	13.9368
1232.01	70.217
1234.91	56.9509
1237.8	64.8047
1240.69	61.3945
1243.59	79.51
1246.48	44.1582
1249.37	28.7014
1252.26	49.0273
1255.16	21.2246
1258.05	39.7441
1260.94	23.7842
1263.83	58.6287
1266.73	55.6641
1269.62	58.1367
1272.51	63.0129
1275.4	26.5193
1278.3	1.39624
1281.19	53.957
1284.08	43.9636
1286.98	61.4185
1289.87	0
