Measurement: Raman, 785 nm, unoriented, Raman Data Processed
Mineral: Millerite
Rruff sample: R060898
Ideal chemistry: NiS
Locality: Orford, Quebec, Canada
Source: Royal Ontario Museum
Description: Pale brass-yellow prismatic crystal with pronounced striations, associated with calcite and green grossular
Measured chemistry: (Ni_0.97_Co_0.02_Fe_0.01_)_Î£=1_S_1.00_ ; trace amounts of As
Raman shift (cm-1)	intensity
180.828	0
183.238	13.0352
185.649	135.24
188.06	8.64062
190.47	77.3496
192.881	70.5019
195.291	34.0879
197.702	85.5996
200.112	175.828
202.523	238.5
204.934	176.182
207.344	79.8984
209.755	8.33398
212.165	31.7012
214.576	84.1777
216.987	91.4981
219.397	137.432
221.808	318.094
224.218	403.777
226.629	504.109
229.04	576.156
231.45	625.879
233.861	639.615
236.271	760.938
238.682	1011.18
241.092	1724
243.503	2777.83
245.913	4104.78
248.324	5856.8
250.735	5095.61
253.145	2017.33
255.556	870.959
257.966	761.312
260.377	308.246
262.788	675.006
265.198	173.049
267.609	69.0762
270.019	51.2402
272.43	63.875
274.841	1.36523
277.251	141.016
279.662	347.049
282.072	324.24
284.483	513.928
286.894	462.26
289.304	539.805
291.715	675.43
294.125	934.322
296.536	944.832
298.946	1284.35
301.357	1567.15
303.767	1695.14
306.178	1489.3
308.589	1082.14
310.999	719.688
313.41	311.199
315.82	173.398
318.231	86.832
320.642	60.9121
323.052	3.02148
325.463	97.8984
327.873	233.254
330.284	332.56
332.695	185.272
335.105	105.111
337.516	37.6484
339.926	31.1172
342.337	85.459
344.748	165.789
347.158	291.072
349.569	423.348
351.979	578.748
354.39	466.041
356.8	307.727
359.211	151.736
361.622	2.55078
364.032	34.332
366.443	204.779
368.853	372.535
371.264	486.783
373.675	652.529
376.085	608.57
378.496	512.377
380.906	312.611
383.317	256.69
385.727	128.957
388.138	49.3281
390.549	40.6172
392.959	89.6562
395.37	261.926
397.78	212.148
400.191	383.43
402.601	194.039
405.012	113.188
407.423	62.9707
409.833	47.6934
412.244	103.273
414.654	197.022
417.065	173.381
419.476	237.305
421.886	171.768
424.297	111.522
426.707	113.338
429.118	22.4668
431.529	4.58984
433.939	103.131
436.35	21.6738
438.76	10.0391
441.171	116.525
443.581	171.537
445.992	236.547
448.403	198.887
450.813	224.83
453.224	34.6855
455.634	42.3242
458.045	220.16
460.455	178.422
462.866	140.99
465.277	200.893
467.687	242.883
470.098	286.574
472.508	183.453
474.919	172.777
477.33	114.693
479.74	76.7637
482.151	120.227
484.561	74.1406
486.972	137.853
489.382	183.609
491.793	56.6836
494.204	140.357
496.614	11.1406
499.025	12.1504
501.435	11.4492
503.846	8.00781
506.257	17.1738
508.667	104.766
511.078	131.594
513.488	50.3516
515.899	96.5859
518.309	91.3945
520.72	77.5332
523.131	35.959
525.541	7.06055
527.952	68.5938
530.362	3.70703
532.773	17.5703
535.184	86.9727
537.594	124.539
540.005	154.207
542.415	146.258
544.826	276.478
547.236	148.781
549.647	120.91
552.058	216.359
554.468	58.9766
556.879	228.935
559.289	241.978
561.7	462.978
564.111	481.664
566.521	702.945
568.932	710.781
571.342	765.027
573.753	420.078
576.163	211.322
578.574	166.508
580.985	133.654
583.395	153.578
585.806	253.699
588.216	104.424
590.627	93.5723
593.038	168.994
595.448	136.457
597.859	103.941
600.269	126.033
602.68	102.644
605.091	120.857
607.501	255.272
609.912	253.15
612.322	174.217
614.733	77.1055
617.144	137.416
619.554	121.969
621.965	134.922
624.375	200.117
626.786	136.918
629.196	168.787
631.607	270.721
634.018	151.414
636.428	242.484
638.839	140.06
641.249	234.357
643.66	161.904
646.071	108.814
648.481	131.504
650.892	218.971
653.302	303.963
655.713	313.533
658.123	385.522
660.534	469.44
662.945	573.693
665.355	670.879
667.766	676.977
670.176	708.674
672.587	921.094
674.997	478.865
677.408	333.783
679.819	235.289
682.229	146.254
684.64	119.492
687.05	116.01
689.461	75.5332
691.872	49.7891
694.282	46.3867
696.693	52.8867
699.103	79.9746
701.514	85.875
703.924	67.1992
706.335	14.6367
708.746	49.1465
711.156	33.9531
713.567	7.12109
715.977	89.5352
718.388	6.60938
720.799	75.2881
723.209	96.543
725.62	85.751
728.03	140.233
730.441	3.19922
732.851	54.1611
735.262	97.5449
737.673	77.3555
740.083	77.0127
742.494	145.013
744.904	51.9102
747.315	59.9326
749.726	139.917
752.136	327.235
754.547	166.968
756.957	93.3125
759.368	119.402
761.779	81.7559
764.189	109.681
766.6	96.9014
769.01	35.4082
771.421	55.8691
773.831	143.88
776.242	128.038
778.653	100.529
781.063	17.3066
783.474	48.5322
785.884	115.665
788.295	211.134
790.706	353.58
793.116	176.191
795.527	119.778
797.937	119.072
800.348	10.2236
802.758	59.8154
805.169	68.1982
807.58	40.3428
809.99	156.124
812.401	160.451
814.811	81.1299
817.222	19.4062
819.633	129.832
822.043	52.3818
824.454	116.248
826.864	51.9824
829.275	207.542
831.685	34.0088
834.096	109.33
836.507	60.0889
838.917	108.656
841.328	38.3662
843.738	112.584
846.149	63.7793
848.559	154.285
850.97	200.179
853.381	113.299
855.791	50.9053
858.202	184.898
860.612	13.0664
863.023	30.3037
865.434	78.0049
867.844	33.8965
870.255	111.019
872.665	117.636
875.076	0.373047
877.486	73.4853
879.897	93.5176
882.308	44.2812
884.718	173.903
887.129	120.205
889.539	110.537
891.95	102.312
894.361	172.746
896.771	63.5361
899.182	35.0117
901.592	152.716
904.003	89.2236
906.413	43.6084
908.824	66.7842
911.235	179.495
913.645	176.84
916.056	185.613
918.466	170.33
920.877	82.5752
923.288	5.18945
925.698	27.0996
928.109	31.5771
930.519	75.0303
932.93	0.78125
935.341	137.202
937.751	71.5557
940.162	90.0381
942.572	25.6475
944.983	43.9502
947.394	4.86914
949.804	1.6875
952.215	51.9297
954.625	2.23438
957.036	173.59
959.446	184.312
961.857	262.266
964.268	112.39
966.678	126.443
969.089	80.6699
971.499	27.1162
973.91	193.393
976.321	270.834
978.731	342.644
981.142	607.045
983.552	742.367
985.963	776.132
988.373	392.547
990.784	468.423
993.195	153.941
995.605	78.9853
998.016	249.69
1000.43	173.032
1002.84	170.232
1005.25	190.807
1007.66	266.604
1010.07	125.833
1012.48	236.174
1014.89	156.512
1017.3	32.2549
1019.71	4.7334
1022.12	51.2227
1024.53	99.7568
1026.94	242.371
1029.35	37.6738
1031.76	38.7197
1034.17	136.664
1036.59	41.3477
1039	145.82
1041.41	42.3877
1043.82	98.5147
1046.23	1.81348
1048.64	114.662
1051.05	83.1064
1053.46	109.819
1055.87	18.1396
1058.28	116.505
1060.69	43.5029
1063.1	3.57227
1065.51	0.317383
1067.92	8.51855
1070.33	108.21
1072.74	248.682
1075.15	71.2715
1077.57	206.209
1079.98	164.005
1082.39	192.234
1084.8	193.922
1087.21	99.0078
1089.62	105.388
1092.03	169.549
1094.44	89.959
1096.85	53.4863
1099.26	39.3613
1101.67	0.145508
