Measurement: Raman, 532 nm, unoriented, Raman Data Processed
Mineral: Miserite
Rruff sample: R060393
Ideal chemistry: K_1.5-x_(Ca,Y,REE)_5_[Si_6_O_15_][Si_2_O_7_](OH,F)_2_yH_2_O
Locality: Wilson Springs, Garland County, Arkansas, USA
Source: Michael Scott
Description: Pale purple mass of prismatic to flaky fragments
Raman shift (cm-1)	intensity
177.334	0
180.227	0.04248
183.119	4.78992
186.012	4.61243
188.905	6.44031
191.798	6.67835
194.69	8.02869
197.583	5.69214
200.476	8.66974
203.369	11.4908
206.261	11.9132
209.154	11.6576
212.047	11.4977
214.939	7.67444
217.832	4.7334
220.725	7.19751
223.617	11.7189
226.51	17.317
229.403	18.5511
232.296	15.8888
235.188	16.8265
238.081	20.1523
240.974	20.9381
243.866	17.421
246.759	20.9645
249.652	25.9935
252.544	27.2727
255.437	14.6451
258.33	28.0361
261.223	24.6338
264.115	22.3871
267.008	23.6972
269.901	23.4488
272.793	18.7727
275.686	15.2277
278.579	11.6283
281.471	7.37634
284.364	5.51111
287.257	2.9621
290.15	4.46021
293.042	0.046387
295.935	2.4494
298.828	2.05603
301.72	0.379211
304.613	4.41412
307.506	7.79071
310.399	5.8172
313.291	4.89356
316.184	8.12964
319.077	7.5896
321.969	6.92835
324.862	8.72266
327.755	8.94238
330.647	10.7641
333.54	3.98602
336.433	5.01843
339.325	0.958191
342.218	3.21845
345.111	3.89929
348.004	4.06921
350.896	5.69013
353.789	3.04779
356.682	5.64575
359.574	0.033936
362.467	1.73395
365.36	4.39862
368.253	3.18298
371.145	9.83289
374.038	6.77838
376.931	8.51556
379.823	10.3636
382.716	13.2844
385.609	12.3864
388.502	14.5872
391.394	11.7975
394.287	12.6843
397.18	11.5818
400.072	15.9514
402.965	12.6782
405.858	13.8709
408.75	8.91083
411.643	4.94574
414.536	4.88971
417.428	7.539
420.321	6.99127
423.214	6.30212
426.107	4.46826
428.999	5.0639
431.892	6.20648
434.785	9.68201
437.677	13.13
440.57	12.7059
443.463	16.2436
446.356	12.1928
449.248	17.6474
452.141	7.35651
455.034	3.5437
457.926	11.4577
460.819	12.4103
463.712	14.0996
466.604	9.39654
469.497	2.36578
472.39	2.09509
475.283	0.767151
478.175	2.05981
481.068	1.67987
483.961	1.91077
486.853	0.560669
489.746	0.173218
492.639	6.34259
495.531	6.71136
498.424	6.6911
501.317	6.82666
504.21	4.52325
507.102	4.69946
509.995	9.95593
512.888	13.3508
515.78	6.50079
518.673	9.96625
521.566	10.324
524.458	13.2181
527.351	11.7662
530.244	10.8961
533.137	12.0221
536.029	15.5856
538.922	16.9496
541.815	17.5109
544.707	16.1766
547.6	13.6706
550.493	11.7085
553.386	6.52075
556.278	3.06458
559.171	3.48718
562.064	0.780212
564.956	3.31696
567.849	0.021606
570.742	0.303711
573.635	2.48987
576.527	1.38464
579.42	1.64642
582.313	1.63501
585.205	1.50458
588.098	4.96521
590.991	2.14179
593.883	2.31561
596.776	0.562988
599.669	4.88959
602.562	11.9392
605.454	14.1626
608.347	27.4374
611.24	35.6141
614.132	54.7965
617.025	76.8986
619.918	99.2151
622.81	119.666
625.703	138.792
628.596	146.056
631.489	176.785
634.381	222.947
637.274	282.038
640.167	321.646
643.059	299.058
645.952	225.987
648.845	167.537
651.737	140.309
654.63	108.905
657.523	87.3971
660.416	74.4039
663.308	56.0454
666.201	48.2889
669.094	30.5427
671.986	15.3268
674.879	13.1491
677.772	8.078
680.664	4.53198
683.557	7.99957
686.45	3.19861
689.343	7.59638
692.235	6.80243
695.128	5.59186
698.021	4.67481
700.913	0.059875
703.806	0.658936
706.699	0.370178
709.592	0.778809
712.484	0.258728
715.377	2.38165
718.27	1.6449
721.162	1.37524
724.055	3.01782
726.948	5.58954
729.841	11.3648
732.733	19.7784
735.626	24.0745
738.519	26.8414
741.411	21.3335
744.304	20.6173
747.197	19.9156
750.089	19.8842
752.982	26.7049
755.875	28.493
758.768	40.7794
761.66	56.7842
764.553	72.387
767.446	96.1623
770.338	116.218
773.231	145.627
776.124	164.037
779.016	186.975
781.909	175.485
784.802	162.463
787.694	131.706
790.587	108.215
793.48	96.6868
796.373	79.7806
799.265	67.7028
802.158	57.3767
805.051	39.1976
807.943	31.0219
810.836	21.698
813.729	19.1827
816.621	13.8047
819.514	10.9078
822.407	9.07422
825.3	7.8866
828.192	2.04321
831.085	6.78748
833.978	0.240356
836.87	1.43579
839.763	4.07251
842.656	0.073364
845.549	5.67981
848.441	4.5791
851.334	9.41785
854.227	13.5806
857.119	10.4744
860.012	5.02588
862.905	6.6969
865.798	5.09985
868.69	2.5625
871.583	1.38794
874.476	4.57947
877.368	3.58484
880.261	1.9679
883.154	0.555298
886.046	3.68616
888.939	1.59412
891.832	3.22852
894.725	3.75452
897.617	6.41211
900.51	6.14404
903.403	9.5918
906.295	13.1967
909.188	18.9357
912.081	25.5891
914.973	19.6199
917.866	39.1672
920.759	38.3704
923.652	41.7684
926.544	43.7771
929.437	39.6598
932.33	34.6445
935.222	32.5502
938.115	24.394
941.008	22.2949
943.9	20.528
946.793	18.5039
949.686	17.5558
952.579	16.9393
955.471	16.0432
958.364	19.5621
961.257	20.1829
964.149	29.4249
967.042	12.0071
969.935	9.11414
972.827	5.27039
975.72	0.627686
978.613	6.25232
981.506	0.192505
984.398	1.10144
987.291	4.07544
990.184	1.77063
993.077	1.51599
995.969	3.13806
998.862	6.58411
1001.75	9.07983
1004.65	4.92188
1007.54	11.613
1010.43	10.1522
1013.33	6.90405
1016.22	7.61426
1019.11	1.55554
1022	5.64783
1024.9	1.04785
1027.79	4.5304
1030.68	0.160767
1033.57	1.28516
1036.47	1.49158
1039.36	7.51672
1042.25	10.7133
1045.14	7.09143
1048.04	13.5458
1050.93	20.3584
1053.82	30.9551
1056.72	32.9468
1059.61	38.7578
1062.5	40.9006
1065.39	30.2305
1068.29	16.4628
1071.18	17.5258
1074.07	11.1615
1076.96	7.06299
1079.86	11.0704
1082.75	13.8813
1085.64	17.7248
1088.54	10.1372
1091.43	7.19775
1094.32	12.5566
1097.21	16.2511
1100.11	15.9123
1103	26.7894
1105.89	38.6425
1108.79	55.2157
1111.68	74.2538
1114.57	96.4966
1117.46	122.281
1120.36	146.163
1123.25	154.009
1126.14	115.552
1129.03	67.702
1131.93	37.3225
1134.82	16.0378
1137.71	6.77551
1140.6	7.28259
1143.5	2.15784
1146.39	1.24231
1149.28	3.49512
1152.17	2.97913
1155.07	2.08167
1157.96	1.05737
1160.85	5.77771
1163.75	6.49634
1166.64	2.99963
1169.53	3.0144
1172.42	8.05798
1175.32	5.01807
1178.21	4.36243
1181.1	5.71411
1183.99	0.924438
1186.89	1.82581
1189.78	8.56848
1192.67	10.0553
1195.57	5.4093
1198.46	5.34546
1201.35	4.81934
1204.24	2.96155
1207.14	5.29956
1210.03	3.7262
1212.92	7.64771
1215.82	4.36426
1218.71	2.56653
1221.6	6.83594
1224.49	10.7812
1227.38	5.68103
1230.28	5.61792
1233.17	1.59058
1236.06	2.66211
1238.96	1.91419
1241.85	0.780762
1244.74	5.50391
1247.63	10.4744
1250.53	6.20508
1253.42	2.47534
1256.31	3.97534
1259.2	8.27539
1262.1	9.6217
1264.99	1.01025
1267.88	4.55444
1270.78	8.25049
1273.67	10.2659
1276.56	4.46362
1279.45	2.3158
1282.35	2.44604
1285.24	10.0118
1288.13	4.73596
1291.03	7.4585
1293.92	1.98315
1296.81	0.601318
1299.7	1.99451
1302.6	0
