Measurement: Raman, 785 nm, unoriented, Raman Data Processed
Mineral: Mixite
Rruff sample: R070503
Ideal chemistry: Cu^2+^_6_Bi^3+^(As^5+^O_4_)_3_(OH)_6_3H_2_O
Locality: Hilarion mine, near Kamariza, Lavrion District, Greece
Source: Bob Jenkins
Description: Radiating aggregates of bluish-green acicular crystals
Measured chemistry: (Cu_5.73_Ca_0.22_Zn_0.06_Fe_0.01_)_Σ=6.02_(Bi_0.52_Ca_0.48_)_Σ=1.00_(AsO_4_)_2.86_(OH)_6_·3.58H_2_O
Raman shift (cm-1)	intensity
118.507	0
121.399	40.0701
124.292	0.37796
127.185	5.24796
130.077	32.0331
132.97	20.4474
135.863	43.5316
138.756	32.0851
141.648	46.9863
144.541	105.406
147.434	147.389
150.326	144.567
153.219	178.21
156.112	168.174
159.005	183.253
161.897	195.504
164.79	121.401
167.683	145.195
170.575	124.653
173.468	116.928
176.361	65.1797
179.253	65.8638
182.146	40.3079
185.039	72.9153
187.931	63.1068
190.824	50.3177
193.717	49.2236
196.61	18.5635
199.502	20.3411
202.395	43.5477
205.288	12.9482
208.18	13.8305
211.073	22.8408
213.966	26.2559
216.858	22.7946
219.751	5.85464
222.644	55.8891
225.536	22.6024
228.429	31.955
231.322	22.1485
234.215	30.2765
237.107	36.4487
240	9.36346
242.893	5.13289
245.785	12.1314
248.678	7.25742
251.571	10.9261
254.464	31.3526
257.356	16.5561
260.249	2.26637
263.142	22.0875
266.034	47.6177
268.927	22.0209
271.82	35.6181
274.712	15.6641
277.605	27.1443
280.498	32.8413
283.391	41.2039
286.283	11.328
289.176	43.8172
292.069	41.527
294.961	37.1619
297.854	64.7256
300.747	63.8376
303.639	74.0678
306.532	80.589
309.425	62.0727
312.318	55.4791
315.21	84.3741
318.103	88.8517
320.996	88.3435
323.888	62.8339
326.781	36.0057
329.674	57.0283
332.567	39.9941
335.459	23.8991
338.352	24.9318
341.245	5.48595
344.137	18.9177
347.03	11.5389
349.923	24.8769
352.815	11.6977
355.708	6.13345
358.601	17.1122
361.493	5.19478
364.386	15.7103
367.279	15.0416
370.171	15.6744
373.064	32.2781
375.957	30.5776
378.85	35.1635
381.742	49.2436
384.635	49.354
387.528	47.071
390.42	76.645
393.313	50.7573
396.206	50.2844
399.099	38.7623
401.991	9.70727
404.884	33.77
407.777	65.1591
410.669	70.3972
413.562	47.8113
416.455	72.1011
419.347	88.6675
422.24	86.8774
425.133	36.5586
428.026	62.1255
430.918	7.76811
433.811	38.5785
436.704	14.2399
439.596	19.406
442.489	28.2446
445.382	6.90614
448.274	32.8579
451.167	31.0959
454.06	48.9929
456.952	55.0852
459.845	82.0382
462.738	105.237
465.631	138.287
468.523	141.514
471.416	173.651
474.309	150.456
477.201	154.973
480.094	113.263
482.987	86.6753
485.88	53.6812
488.772	57.4846
491.665	21.889
494.558	19.6297
497.45	1.16202
500.343	4.34183
503.236	15.8011
506.128	3.3037
509.021	16.9194
511.914	11.8767
514.807	1.43819
517.699	12.1593
520.592	12.1436
523.485	33.3839
526.377	19.1404
529.27	20.8831
532.163	53.2073
535.056	39.693
537.948	33.9715
540.841	11.9932
543.734	22.3163
546.626	28.3318
549.519	10.2455
552.412	9.96838
555.304	26.603
558.197	31.5525
561.09	7.8137
563.982	17.6242
566.875	23.3253
569.768	6.97469
572.661	21.7235
575.553	3.20401
578.446	6.99441
581.339	9.07122
584.231	45.118
587.124	14.9198
590.017	23.7226
592.909	10.4615
595.802	19.4445
598.695	28.1842
601.587	19.8682
604.48	29.4476
607.373	9.24529
610.266	25.8684
613.158	23.4096
616.051	1.32703
618.944	3.7811
621.836	19.5366
624.729	0.471382
627.622	24.6727
630.514	31.2325
633.407	13.4129
636.3	18.4653
639.193	4.59456
642.085	22.2959
644.978	0.267479
647.871	15.1654
650.763	13.4346
653.656	18.2165
656.549	24.2633
659.442	14.4874
662.334	37.8532
665.227	13.7898
668.12	16.8502
671.012	17.3215
673.905	20.8214
676.798	5.18234
679.69	7.54941
682.583	17.2808
685.476	27.4461
688.369	21.1161
691.261	9.42655
694.154	30.6686
697.047	33.6147
699.939	4.257
702.832	23.3909
705.725	32.0044
708.617	21.2086
711.51	20.8038
714.403	17.0327
717.295	23.7434
720.188	40.6775
723.081	0.090523
725.974	10.4859
728.866	14.6244
731.759	39.767
734.652	34.4243
737.544	2.24432
740.437	8.02521
743.33	7.06141
746.222	27.4102
749.115	10.8059
752.008	4.87158
754.901	1.33423
757.793	6.49632
760.686	4.80742
763.579	3.17799
766.471	26.787
769.364	10.4661
772.257	23.8634
775.149	14.8545
778.042	18.3606
780.935	14.7157
783.828	29.1383
786.72	27.8001
789.613	19.342
792.506	31.6788
795.398	44.4011
798.291	53.6439
801.184	76.6426
804.077	95.3362
806.969	91.5184
809.862	104.347
812.755	122.766
815.647	133.098
818.54	124.873
821.433	137.333
824.325	160.284
827.218	165.384
830.111	156.113
833.004	168.732
835.896	196.31
838.789	210.826
841.682	280.029
844.574	313.954
847.467	397.453
850.36	410.99
853.252	401.721
856.145	316.745
859.038	215.106
861.931	150.783
864.823	126.55
867.716	111.312
870.609	61.3073
873.501	51.2359
876.394	53.4144
879.287	52.1018
882.179	30.4278
885.072	38.959
887.965	25.8871
890.857	10.8837
893.75	37.1816
896.643	22.506
899.536	17.2253
902.428	22.3276
905.321	2.66223
908.214	15.3204
911.106	28.137
913.999	1.82388
916.892	25.5853
919.784	3.23032
922.677	17.1637
925.57	11.9215
928.463	24.7531
931.355	2.29116
934.248	13.5225
937.141	10.4001
940.033	16.3256
942.926	22.6748
945.819	5.25914
948.712	13.9217
951.604	42.9894
954.497	14.6156
957.39	5.94778
960.282	23.3215
963.175	43.4254
966.068	25.2635
968.96	8.6916
971.853	24.6961
974.746	35.3314
977.639	29.3454
980.531	38.5222
983.424	6.06097
986.317	11.5208
989.209	33.3776
992.102	39.5803
994.995	32.2677
997.888	34.5942
1000.78	32.4909
1003.67	13.1329
1006.57	25.6788
1009.46	10.923
1012.35	1.17782
1015.24	15.1407
1018.14	7.58047
1021.03	24.7633
1023.92	21.0454
1026.81	19.2639
1029.71	36.2807
1032.6	16.1396
1035.49	17.8
1038.38	29.0086
1041.28	29.2649
1044.17	18.4278
1047.06	12.8379
1049.96	19.9519
1052.85	6.55753
1055.74	46.6935
1058.63	13.0903
1061.53	6.70531
1064.42	18.341
1067.31	16.637
1070.2	10.6968
1073.1	14.4465
1075.99	18.8062
1078.88	14.9429
1081.78	19.2337
1084.67	11.7767
1087.56	14.623
1090.45	25.3204
1093.35	43.974
1096.24	2.94497
1099.13	5.15167
1102.03	11.2147
1104.92	16.9237
1107.81	28.2015
1110.7	25.1503
1113.6	14.0597
1116.49	2.38805
1119.38	22.2324
1122.27	1.99589
1125.17	8.53573
1128.06	16.458
1130.95	16.1526
1133.84	3.93086
1136.74	22.2386
1139.63	18.0718
1142.52	20.5918
1145.41	10.4391
1148.31	8.19685
1151.2	28.6556
1154.09	7.05688
1156.99	11.0874
1159.88	14.3313
1162.77	19.3689
1165.66	6.41455
1168.56	5.98316
1171.45	12.8712
1174.34	4.57271
1177.23	27.6881
1180.13	46.9362
1183.02	28.0299
1185.91	36.0586
1188.81	6.63921
1191.7	34.164
1194.59	4.27847
1197.48	21.7725
1200.38	39.4797
1203.27	41.9876
1206.16	20.4113
1209.06	29.2099
1211.95	22.8451
1214.84	29.52
1217.73	5.16953
1220.62	40.4118
1223.52	24.6008
1226.41	14.5775
1229.3	20.2613
1232.2	33.8856
1235.09	28.0145
1237.98	22.4536
1240.87	25.3211
1243.77	18.6591
1246.66	27.918
1249.55	4.40298
1252.44	34.291
1255.34	24.2986
1258.23	24.5039
1261.12	17.8418
1264.02	0.441574
1266.91	0
