Measurement: Raman, 532 nm, unoriented, Raman Data Processed
Mineral: Monazite-(Ce)
Rruff sample: R120081
Ideal chemistry: CePO_4_
Locality: Hinman mine, Jefferson County, Colorado, USA
Source: Rudy Bolona
Description: Reddish-brown massive
Raman shift (cm-1)	intensity
205.236	0
208.129	4.02163
211.021	5.19256
213.914	11.5049
216.807	19.3024
219.699	24.9836
222.592	33.2126
225.485	26.8704
228.377	16.6209
231.27	11.2993
234.163	8.61193
237.056	9.39999
239.948	10.189
242.841	9.56168
245.734	3.67485
248.626	0.455193
251.519	1.06942
254.412	0.522713
257.305	3.49916
260.197	1.95392
263.09	3.784
265.983	5.08382
268.875	10.6866
271.768	15.1106
274.661	20.1676
277.553	27.2291
280.446	32.8046
283.339	39.5654
286.232	44.5579
289.124	49.907
292.017	52.3028
294.91	46.0219
297.802	37.9932
300.695	30.2899
303.588	23.8122
306.481	16.7057
309.373	10.9675
312.266	6.96366
315.159	5.66838
318.051	3.09714
320.944	1.5947
323.837	1.7321
326.729	0.449654
329.622	0.837708
332.515	0.764084
335.408	0.46817
338.3	0.59539
341.193	0.05584
344.086	1.41844
346.978	0.759224
349.871	1.01474
352.764	0.742401
355.656	0.725708
358.549	3.44064
361.442	2.04191
364.334	5.41493
367.227	7.5998
370.12	7.04453
373.012	6.77461
375.905	11.7063
378.798	17.1668
381.691	17.426
384.583	25.2584
387.476	28.5599
390.369	37.1598
393.261	45.6785
396.154	50.9253
399.047	61.497
401.94	65.4828
404.832	67.7501
407.725	63.9902
410.618	55.5516
413.51	43.9489
416.403	32.497
419.296	22.1662
422.188	16.4348
425.081	11.6622
427.974	9.95333
430.866	6.56654
433.759	5.80228
436.652	4.65095
439.545	5.0524
442.437	7.51042
445.33	6.07306
448.223	5.2271
451.115	7.23756
454.008	7.09338
456.901	8.67242
459.793	9.83915
462.686	12.0304
465.579	11.9473
468.472	9.39898
471.364	11.2031
474.257	8.9241
477.15	9.28646
480.042	8.07069
482.935	8.40273
485.828	8.74757
488.721	10.571
491.613	10.2024
494.506	10.3887
497.399	10.1813
500.291	9.90714
503.184	5.91888
506.077	6.75356
508.969	4.26984
511.862	5.17615
514.755	3.66149
517.648	3.10445
520.54	0.740913
523.433	0.086929
526.326	0.002594
529.218	1.44826
532.111	0.937569
535.004	1.4258
537.896	0.596107
540.789	0.253586
543.682	1.11129
546.575	1.26626
549.467	1.18201
552.36	0.189003
555.253	0.08284
558.145	1.96823
561.038	1.13646
563.931	0.59494
566.823	1.10326
569.716	3.91997
572.609	4.27811
575.502	3.69711
578.394	6.64405
581.287	6.91206
584.18	8.29481
587.072	9.33137
589.965	16.4165
592.858	18.8491
595.75	20.2064
598.643	21.0667
601.536	24.3735
604.428	27.2413
607.321	26.0011
610.214	24.4537
613.107	22.8656
615.999	20.8126
618.892	20.2718
621.785	17.3322
624.677	17.2686
627.57	16.2534
630.463	15.3669
633.356	17.3157
636.248	18.4709
639.141	20.1068
642.034	21.1392
644.926	25.4461
647.819	27.7309
650.712	31.663
653.604	30.9042
656.497	30.0321
659.39	28.8889
662.283	30.1847
665.175	27.3243
668.068	24.0562
670.961	22.3111
673.853	19.9662
676.746	18.2015
679.639	14.7744
682.531	13.2366
685.424	11.1001
688.317	11.2921
691.21	9.98814
694.102	8.29948
696.995	6.99069
699.888	6.82027
702.78	2.70835
705.673	5.52304
708.566	2.91875
711.458	4.18582
714.351	0.988647
717.244	1.29662
720.136	0.055244
723.029	0.17012
725.922	0.147247
728.815	1.16103
731.707	0.302559
734.6	0.072968
737.493	0.377419
740.385	1.23502
743.278	0.716301
746.171	0.155396
749.063	0.166588
751.956	0.264427
754.849	0.716202
757.742	0.746132
760.634	1.8215
763.527	0.474434
766.42	2.3463
769.312	1.50452
772.205	2.00493
775.098	3.94294
777.99	4.84623
780.883	4.75094
783.776	4.63462
786.669	5.76353
789.561	5.38364
792.454	5.58751
795.347	7.68109
798.239	6.15249
801.132	5.8285
804.025	7.59593
806.918	8.52307
809.81	8.13917
812.703	7.881
815.596	8.44759
818.488	8.73669
821.381	7.80991
824.274	8.07037
827.166	9.24335
830.059	6.72255
832.952	9.24181
835.845	8.15944
838.737	5.56549
841.63	7.16956
844.523	7.46564
847.415	8.24459
850.308	5.20264
853.201	8.35831
856.093	6.95186
858.986	7.38867
861.879	7.36852
864.771	5.64548
867.664	5.52596
870.557	6.22151
873.45	6.58071
876.342	5.60938
879.235	5.48684
882.128	4.05108
885.02	4.91016
887.913	5.31789
890.806	3.2597
893.698	2.90169
896.591	2.03095
899.484	3.26626
902.377	0.005684
905.269	1.1116
908.162	0.167931
911.055	0.211678
913.947	1.3754
916.84	0.655426
919.733	0.659584
922.625	0.509796
925.518	0.661003
928.411	0.016464
931.304	1.53805
934.196	2.22948
937.089	0.456879
939.982	3.60373
942.875	2.88169
945.767	1.31155
948.66	5.75562
951.553	7.31339
954.445	10.1723
957.338	12.4425
960.231	17.7451
963.123	22.2484
966.016	27.0157
968.909	31.5874
971.802	33.909
974.694	29.2927
977.587	25.2112
980.48	20.2724
983.372	17.4923
986.265	15.0936
989.158	12.244
992.05	7.91806
994.943	5.03416
997.836	3.85267
1000.73	3.51493
1003.62	1.93044
1006.51	2.40903
1009.41	0.145447
1012.3	1.60088
1015.19	1.17469
1018.09	1.07004
1020.98	0.108757
1023.87	1.25357
1026.76	0.550644
1029.66	3.45227
1032.55	3.27296
1035.44	3.06316
1038.33	2.06941
1041.23	3.20789
1044.12	1.54525
1047.01	1.57646
1049.9	3.50539
1052.8	4.32416
1055.69	4.05159
1058.58	7.55251
1061.47	5.34814
1064.37	4.7202
1067.26	4.7935
1070.15	6.06433
1073.05	5.80187
1075.94	5.93327
1078.83	5.58688
1081.72	4.41971
1084.62	3.62481
1087.51	1.54702
1090.4	3.06265
1093.3	4.16054
1096.19	1.81947
1099.08	3.6058
1101.97	1.86498
1104.87	0.507629
1107.76	2.12481
1110.65	2.31533
1113.54	0.432701
1116.44	0.97438
1119.33	0.401245
1122.22	1.19326
1125.12	2.44061
1128.01	0.790916
1130.9	0.502014
1133.79	0.802063
1136.68	0.913849
1139.58	0.799461
1142.47	1.57416
1145.36	2.743
1148.26	1.09502
1151.15	1.16931
1154.04	0.833122
1156.93	1.3073
1159.83	0.080811
1162.72	1.83958
1165.61	2.81357
1168.51	1.49189
1171.4	1.20943
1174.29	2.03391
1177.18	4.17705
1180.08	4.62787
1182.97	5.25546
1185.86	3.96789
1188.75	4.42004
1191.65	5.3108
1194.54	4.10718
1197.43	2.03009
1200.33	3.63381
1203.22	5.3215
1206.11	5.93546
1209	4.68902
1211.9	2.34559
1214.79	4.10721
1217.68	3.12343
1220.57	1.14545
1223.47	3.53848
1226.36	4.24872
1229.25	0.565666
1232.14	1.17467
1235.04	0.796806
1237.93	1.50447
1240.82	0.924347
1243.71	1.11663
1246.61	0.467934
1249.5	1.47232
1252.39	3.13378
1255.29	2.87926
1258.18	3.42966
1261.07	3.74554
1263.96	2.80493
1266.86	4.59898
1269.75	4.96664
1272.64	2.66563
1275.54	0.885536
1278.43	2.67662
1281.32	1.94341
1284.21	1.52065
1287.11	2.89386
1290	1.62976
1292.89	4.03404
1295.78	0.192505
1298.68	1.43567
1301.57	0.341095
