Measurement: Raman, 532 nm, unoriented, Raman Data Processed
Mineral: Monetite
Rruff sample: R070259
Ideal chemistry: Ca(PO_3_OH)
Locality: Paoha Island, Mono Lake, Mono County, California, USA
Source: Michael Scott
Description: Fine-grained tan crust on white newberyite
Raman shift (cm-1)	intensity
184.374	0
187.267	76.1934
190.16	22.9209
193.052	66.6338
195.945	40.3701
198.838	143.418
201.731	107.206
204.623	113.629
207.516	58.3477
210.409	185.706
213.301	60.4004
216.194	105.172
219.087	70.7773
221.979	60.292
224.872	116.31
227.765	207.744
230.657	109.628
233.55	159.625
236.443	127.908
239.336	151.509
242.228	189.385
245.121	200.359
248.014	187.669
250.906	127.439
253.799	40.6885
256.692	136.107
259.584	81.1807
262.477	127.228
265.37	22.5518
268.263	102.064
271.155	153.412
274.048	120.402
276.941	27.4795
279.833	11.3701
282.726	86.7305
285.619	47.9863
288.512	121.307
291.404	102.607
294.297	100.926
297.19	3.04688
300.082	62.9609
302.975	25.3125
305.868	89.3984
308.76	49.793
311.653	98.4356
314.546	52.6074
317.438	6.13867
320.331	80.6152
323.224	122.648
326.117	72.7324
329.009	70.7188
331.902	41.6055
334.795	22.4766
337.687	99.9688
340.58	112.33
343.473	52.1074
346.365	93.5938
349.258	11.4746
352.151	59.5078
355.044	65.8691
357.936	94.0918
360.829	13.5742
363.722	38.0566
366.614	63.043
369.507	0.251953
372.4	52.6348
375.293	0.720703
378.185	4.60547
381.078	1.83203
383.971	93.6055
386.863	12.957
389.756	85.3984
392.649	91.709
395.541	51.9512
398.434	54.9648
401.327	33.002
404.219	100.826
407.112	119.768
410.005	48.6562
412.898	112.562
415.79	150.803
418.683	166.201
421.576	213.012
424.469	154.299
427.361	254.728
430.254	226.109
433.147	117.293
436.039	176.258
438.932	159.447
441.825	177.918
444.717	117.033
447.61	86.209
450.503	128.734
453.396	138.756
456.288	124.525
459.181	2.05859
462.074	56.4629
464.966	137.613
467.859	102.07
470.752	136.451
473.644	16.7988
476.537	36.4453
479.43	12.4473
482.322	11.0918
485.215	127.811
488.108	156.027
491.001	187.203
493.893	73.2031
496.786	94.793
499.679	42.1426
502.571	28.4844
505.464	82.0273
508.357	58.8086
511.25	101.022
514.142	39.2461
517.035	51.6562
519.928	46.9883
522.82	13.7637
525.713	122.793
528.606	35.7637
531.498	104.699
534.391	80.8086
537.284	75.8613
540.177	169.018
543.069	41.3594
545.962	149.805
548.855	47.9824
551.747	105.916
554.64	11.4512
557.533	80.0586
560.425	27.4336
563.318	106.998
566.211	30.3301
569.104	32.5156
571.996	146.299
574.889	87.4414
577.782	117.357
580.674	170.262
583.567	31.8945
586.46	5.32227
589.352	196.272
592.245	72.3242
595.138	70.8945
598.031	1.30078
600.923	193.412
603.816	60.1191
606.709	195.199
609.601	29.2168
612.494	19.834
615.387	170.613
618.279	157.744
621.172	73.1562
624.065	92.7617
626.958	92.7832
629.85	160.154
632.743	102.018
635.636	194.231
638.528	180.15
641.421	213.478
644.314	76.9512
647.207	309.32
650.099	256.717
652.992	332.301
655.885	205.201
658.777	211.787
661.67	138.449
664.563	281.518
667.455	213.312
670.348	142.205
673.241	195.34
676.134	179.027
679.026	33.2344
681.919	115.625
684.812	122.481
687.704	9.2793
690.597	188.908
693.49	79.1836
696.382	46.502
699.275	63
702.168	59.6016
705.061	50.1797
707.953	23.2363
710.846	216.119
713.739	105.686
716.631	57.1582
719.524	0.923828
722.417	32.1191
725.309	61.5918
728.202	127.42
731.095	90.4219
733.987	124.885
736.88	46.7285
739.773	144.877
742.666	111.066
745.558	58.7441
748.451	73.7598
751.344	7.09766
754.236	77.7383
757.129	147.096
760.022	140.211
762.915	121.754
765.807	114.037
768.7	79.375
771.593	73.5273
774.485	74.832
777.378	172.793
780.271	101.141
783.163	86.2383
786.056	203.965
788.949	336.148
791.842	187.152
794.734	137.031
797.627	170.684
800.52	206.691
803.412	71.793
806.305	126.234
809.198	161.715
812.091	52.3984
814.983	203.238
817.876	139.281
820.769	183.215
823.661	105.316
826.554	137.832
829.447	70.0547
832.339	51.2695
835.232	141.809
838.125	178.324
841.018	70.1484
843.91	137.953
846.803	137.887
849.696	197.363
852.588	80.4609
855.481	152.414
858.374	119.984
861.266	125.754
864.159	127.188
867.052	146.543
869.944	124.859
872.837	263.613
875.73	67.0977
878.623	145.488
881.515	141.875
884.408	0.535156
887.301	173.32
890.193	129.125
893.086	83.5469
895.979	84.9375
898.871	91.3398
901.764	140.082
904.657	55.9883
907.55	127.84
910.442	135.879
913.335	19.5508
916.228	129.312
919.12	34.0039
922.013	189.582
924.906	26.8789
927.798	56.3633
930.691	174.32
933.584	130.375
936.477	268.019
939.369	194.352
942.262	280.055
945.155	262.055
948.047	258.348
950.94	399.594
953.833	555.398
956.726	785.758
959.618	862.738
962.511	856.121
965.404	723.598
968.296	559.441
971.189	371.383
974.082	248.992
976.974	90.1758
979.867	154.91
982.76	144.762
985.653	35.4492
988.545	110.566
991.438	205.926
994.331	145.805
997.223	174.293
1000.12	200.023
1003.01	12.8477
1005.9	11.75
1008.79	260.594
1011.69	35.6055
1014.58	160.32
1017.47	63.9141
1020.37	99.3594
1023.26	177.102
1026.15	126.531
1029.04	65.5625
1031.94	100.285
1034.83	35.2344
1037.72	218.894
1040.61	188.422
1043.51	180.734
1046.4	135.938
1049.29	89.6133
1052.18	187.703
1055.08	43.2461
1057.97	8.94531
1060.86	166.269
1063.76	96.8633
1066.65	53.3086
1069.54	309.195
1072.43	79.2617
1075.33	132.34
1078.22	257.387
1081.11	173.547
1084	185.383
1086.9	109.203
1089.79	78.1641
1092.68	192.606
1095.58	52.5508
1098.47	41.9766
1101.36	35.2852
1104.25	25.4492
1107.15	77.0703
1110.04	43.8047
1112.93	161.102
1115.82	135.262
1118.72	9.03516
1121.61	98.1641
1124.5	54.25
1127.39	200.098
1130.29	140.644
1133.18	172
1136.07	165.672
1138.97	62.6133
1141.86	96.3555
1144.75	117.676
1147.64	83.1562
1150.54	262.523
1153.43	171.469
1156.32	212.594
1159.21	304.766
1162.11	115.621
1165	29.9453
1167.89	184.707
1170.79	233.516
1173.68	156.582
1176.57	62.1562
1179.46	248.672
1182.36	134.711
1185.25	8.19141
1188.14	110.832
1191.03	94.1211
1193.93	138.297
1196.82	121.879
1199.71	193.394
1202.61	82.8242
1205.5	42.5625
1208.39	103.383
1211.28	108.363
1214.18	146.5
1217.07	260.25
1219.96	71.8477
1222.85	17.5352
1225.75	174.176
1228.64	144.094
1231.53	0.941406
1234.42	149.57
1237.32	76.1562
1240.21	132.051
1243.1	114.871
1246	183.195
1248.89	100.148
1251.78	232.062
1254.67	138.812
1257.57	169.93
1260.46	154.973
1263.35	168.523
1266.24	110.109
1269.14	232.699
1272.03	212.836
1274.92	61.1562
1277.82	150.43
1280.71	173.703
1283.6	9.88672
1286.49	207.832
1289.39	94.6055
