Measurement: Raman, 785 nm, unoriented, Raman Data Processed
Mineral: Monetite
Rruff sample: R070259
Ideal chemistry: Ca(PO_3_OH)
Locality: Paoha Island, Mono Lake, Mono County, California, USA
Source: Michael Scott
Description: Fine-grained tan crust on white newberyite
Raman shift (cm-1)	intensity
205.39	0
208.282	68.0332
211.175	11.0039
214.068	64.9961
216.961	171.863
219.853	341.144
222.746	426.932
225.639	315.82
228.531	386.184
231.424	314.734
234.317	420.57
237.209	402.719
240.102	631.596
242.995	506.621
245.888	588.301
248.78	515.434
251.673	442.998
254.566	466.277
257.458	522.002
260.351	599.85
263.244	609.826
266.137	627.266
269.029	520.791
271.922	427.088
274.815	480.539
277.707	554.162
280.6	537.018
283.493	478.478
286.385	630.238
289.278	598.604
292.171	594.482
295.063	446.412
297.956	325.943
300.849	371.889
303.742	413.93
306.634	437.861
309.527	368.238
312.42	370.203
315.312	168.81
318.205	143.769
321.098	167.891
323.99	122.147
326.883	138.264
329.776	322.496
332.669	273.56
335.561	239.619
338.454	130.887
341.347	98.2617
344.239	12.3848
347.132	18.4258
350.025	86.5938
352.918	166.363
355.81	141.348
358.703	84.6426
361.596	60.041
364.488	28.9922
367.381	22.4688
370.274	51.3145
373.166	42.1035
376.059	197.647
378.952	175.342
381.844	127.949
384.737	13.3086
387.63	7.16602
390.523	19.2285
393.415	153.328
396.308	181.418
399.201	294.467
402.093	258.24
404.986	268.211
407.879	319.83
410.772	347.172
413.664	445.637
416.557	624.131
419.45	789.098
422.342	847.055
425.235	977.939
428.128	1032.82
431.02	917.123
433.913	799.01
436.806	788.375
439.699	692.988
442.591	726.807
445.484	704.316
448.377	661.629
451.269	652.141
454.162	545.65
457.055	452.988
459.947	225.65
462.84	294.809
465.733	257.935
468.625	358.496
471.518	299.959
474.411	208.397
477.304	181.973
480.196	9.5918
483.089	38.6602
485.982	143.842
488.874	86.1074
491.767	69.7539
494.66	118.219
497.553	32.6309
500.445	1.84375
503.338	76.9414
506.231	25.8555
509.123	50.9688
512.016	62.6465
514.909	113.264
517.802	33.2539
520.694	45.1895
523.587	4.85742
526.48	104.592
529.372	86.9844
532.265	300.328
535.158	59.1289
538.05	248.699
540.943	223.478
543.836	177.484
546.729	183.965
549.621	122.422
552.514	248.443
555.407	205.619
558.299	332.231
561.192	251.178
564.085	362.658
566.977	302.795
569.87	365.547
572.763	518.646
575.655	553.311
578.548	773.883
581.441	730.801
584.333	786.996
587.226	719.094
590.119	770.467
593.012	584.514
595.904	433.356
598.797	394.84
601.69	409.894
604.582	422.918
607.475	445.777
610.368	418.231
613.26	368.953
616.153	334.621
619.046	240.137
621.939	226.69
624.831	142.356
627.724	145.799
630.617	207.633
633.509	101.512
636.402	14.4043
639.295	76.1406
642.188	9.85938
645.08	40.0977
647.973	42.1094
650.866	50.4941
653.758	0.777344
656.651	163.973
659.544	43.3301
662.436	28.7109
665.329	0.896484
668.222	34.1602
671.115	60.6133
674.007	42.752
676.9	179.389
679.793	120.742
682.685	73.5664
685.578	98.1269
688.471	122.982
691.363	116.785
694.256	294.023
697.149	169.195
700.042	132.188
702.934	216.215
705.827	181.408
708.72	154.477
711.612	134.217
714.505	190.361
717.398	142.234
720.29	164.19
723.183	164.467
726.076	155.123
728.968	70.4023
731.861	172.328
734.754	66.7188
737.647	134.094
740.539	156.397
743.432	112.207
746.325	58.0703
749.217	145.152
752.11	8.39258
755.003	80.3438
757.895	130.68
760.788	124
763.681	26.2188
766.574	10.3594
769.466	102.508
772.359	74.3438
775.252	226.307
778.144	52.0645
781.037	78.3262
783.93	235.125
786.822	2.51367
789.715	170.797
792.608	110.057
795.501	126.482
798.393	28.0977
801.286	71.8496
804.179	110.019
807.071	48.1172
809.964	40.2246
812.857	98.5977
815.75	81.668
818.642	208.334
821.535	149.31
824.428	57.3496
827.32	15.0039
830.213	97.6133
833.106	78.6231
835.998	45.0312
838.891	109.898
841.784	36.1992
844.677	148.016
847.569	76.2207
850.462	61.8594
853.355	80.6406
856.247	69.9473
859.14	82.6894
862.033	49.877
864.925	142.137
867.818	189.137
870.711	176.555
873.604	147.191
876.496	140.658
879.389	130.361
882.282	105.375
885.174	140.551
888.067	29.4375
890.96	123.238
893.852	101.322
896.745	32.3906
899.638	2.27148
902.53	122.975
905.423	13.3555
908.316	63.502
911.209	73.9219
914.101	33.4922
916.994	7.31055
919.887	63.6133
922.779	47.0664
925.672	25.709
928.565	83.8809
931.457	128.984
934.35	166.019
937.243	226.459
940.136	449.195
943.028	660.93
945.921	1082.34
948.814	1585.18
951.706	2192.24
954.599	3114.87
957.492	4235.51
960.385	5185.4
963.277	5399.76
966.17	4500.09
969.063	3094.05
971.955	1901.52
974.848	1105.31
977.741	774.619
980.633	460.26
983.526	399.434
986.419	282.377
989.312	197.379
992.204	138.238
995.097	156.668
997.99	137.336
1000.88	163.102
1003.77	111.623
1006.67	158.697
1009.56	123.477
1012.45	122.781
1015.35	75.9805
1018.24	52.0566
1021.13	8.91016
1024.02	97.8945
1026.92	119.926
1029.81	1
1032.7	101.805
1035.6	131.914
1038.49	175.654
1041.38	220.647
1044.27	111.033
1047.17	153.285
1050.06	261.529
1052.95	160.557
1055.84	131.422
1058.74	168.043
1061.63	71.8223
1064.52	63.6934
1067.41	102.799
1070.31	138.346
1073.2	156.357
1076.09	204.232
1078.98	133.316
1081.88	126.057
1084.77	128.066
1087.66	92.3262
1090.56	110.18
1093.45	30.5938
1096.34	44.0742
1099.23	26.252
1102.13	80.3496
1105.02	44.8223
1107.91	46.7617
1110.81	75.5781
1113.7	102.602
1116.59	45.1914
1119.48	19.4961
1122.38	103.715
1125.27	101.195
1128.16	137.539
1131.05	50.4102
1133.95	97.8672
1136.84	142.586
1139.73	78.7988
1142.62	97.0508
1145.52	199.137
1148.41	112.88
1151.3	61.4072
1154.19	89.3721
1157.09	52.0889
1159.98	144.74
1162.87	90.9785
1165.77	70.5371
1168.66	45.9531
1171.55	180.068
1174.44	102.405
1177.34	86.8076
1180.23	127.759
1183.12	43.9424
1186.02	74.9365
1188.91	174.56
1191.8	3.62207
1194.69	108.835
1197.59	185.547
1200.48	119.745
1203.37	69.9189
1206.26	78.6865
1209.16	66.1318
1212.05	87.6172
1214.94	28.5283
1217.84	105.926
1220.73	141.316
1223.62	62.0996
1226.51	66.4951
1229.41	53.2725
