Measurement: Raman, 780 nm, unoriented, Raman Data Processed
Mineral: Monteregianite-(Y)
Rruff sample: R080109
Ideal chemistry: KNa_2_YSi_8_O_19_5H_2_O
Locality: Mont Saint-Hilaire, Quebec, Canada
Source: William W. Pinch
Description: Elongated cluster of grayish white fibers at the base of a cluster of terminated quartz crystals
Raman shift (cm-1)	intensity
111.326	0
114.701	2.91333
118.076	4.13574
121.45	4.65198
124.825	7.71631
128.2	8.51392
131.575	7.9187
134.95	2.65772
138.325	6.3905
141.699	5.52869
145.074	5.68359
148.449	6.98206
151.824	5.84106
155.199	4.57935
158.573	3.1654
161.948	4.04126
165.323	1.05835
168.698	0.208496
172.073	1.60803
175.447	0.024048
178.822	4.45508
182.197	1.73901
185.572	1.79456
188.947	5.43896
192.322	3.18054
195.696	6.85376
199.071	5.68933
202.446	5.39307
205.821	9.6748
209.196	7.96948
212.571	12.2167
215.945	7.51599
219.32	5.72864
222.695	8.03223
226.07	5.86169
229.445	8.88904
232.819	7.2439
236.194	5.37805
239.569	7.56592
242.944	0.190552
246.319	5.38354
249.694	6.61133
253.068	7.25928
256.443	0.820557
259.818	2.16711
263.193	3.29102
266.567	3.50732
269.942	2.21973
273.317	1.13965
276.692	0.62207
280.067	3.46387
283.442	0.894043
286.816	0.086426
290.191	0.450073
293.566	4.08752
296.941	1.26514
300.316	3.32129
303.69	2.13965
307.065	3.10669
310.44	2.37134
313.815	1.26172
317.19	4.19336
320.565	3.26186
323.939	3.41754
327.314	3.55819
330.689	5.98962
334.064	6.12634
337.439	5.33538
340.813	7.17213
344.188	10.697
347.563	9.13098
350.938	9.54175
354.313	7.75732
357.688	10.7792
361.062	7.90704
364.437	8.17935
367.812	8.61377
371.187	9.03784
374.562	5.38647
377.937	6.63806
381.311	5.67517
384.686	2.12817
388.061	0.86554
391.436	2.51733
394.81	0.121582
398.185	1.27234
401.56	1.21985
404.935	0.174011
408.31	0.782104
411.685	0.233032
415.059	1.3703
418.434	2.66492
421.809	4.07703
425.184	7.59875
428.559	3.57898
431.933	5.98053
435.308	3.48254
438.683	3.6106
442.058	3.47894
445.433	2.1452
448.808	4.69257
452.182	4.22955
455.557	4.23895
458.932	11.3177
462.307	13.6887
465.682	14.3502
469.057	13.033
472.431	11.5609
475.806	10.0605
479.181	8.95044
482.556	12.254
485.931	10.962
489.305	16.0508
492.68	11.7747
496.055	11.3715
499.43	9.73822
502.805	7.28668
506.18	9.09949
509.554	5.04779
512.929	4.44604
516.304	5.11157
519.679	0.641357
523.054	1.32703
526.428	1.76831
529.803	0.68457
533.178	0.119934
536.553	2.04413
539.928	0.51416
543.303	2.06842
546.677	0.949829
550.052	1.19965
553.427	0.728516
556.802	2.53626
560.177	1.2854
563.551	1.8266
566.926	0.403625
570.301	3.05896
573.676	2.16174
577.051	0.650269
580.426	0.116333
583.8	0.382507
587.175	4.85815
590.55	3.9762
593.925	7.91022
597.299	7.45319
600.674	11.6285
604.049	19.2595
607.424	24.1127
610.799	34.6222
614.174	36.8619
617.548	42.3815
620.923	35.3445
624.298	30.109
627.673	27.6084
631.048	26.3729
634.423	17.1363
637.797	15.6221
641.172	9.00836
644.547	7.76721
647.922	6.75964
651.297	1.90601
654.671	3.58551
658.046	4.19116
661.421	0.240051
664.796	1.83679
668.171	0.457886
671.545	0.488464
674.92	1.00147
678.295	0.479797
681.67	3.99689
685.045	2.99817
688.42	3.69013
691.794	3.1073
695.169	2.23999
698.544	5.44385
701.919	2.12402
705.294	1.70099
708.668	3.64093
712.043	3.18945
715.418	3.62103
718.793	1.86939
722.168	2.71628
725.543	2.49541
728.917	0.744507
732.292	3.21576
735.667	0.760132
739.042	1.13043
742.417	0.418396
745.791	3.89972
749.166	1.18945
752.541	0.281799
755.916	1.3103
759.291	0.895874
762.665	3.96417
766.04	1.67517
769.415	0.351624
772.79	6.10449
776.165	4.6637
779.54	3.66669
782.914	6.40601
786.289	5.45178
789.664	2.86176
793.039	3.57117
796.414	3.18669
799.788	4.37103
803.163	3.23383
806.538	3.65314
809.913	3.92468
813.288	3.5882
816.663	4.46973
820.037	1.09888
823.412	2.77826
826.787	3.599
830.162	2.27185
833.537	4.34833
836.912	1.8371
840.286	1.63232
843.661	3.52338
847.036	3.13885
850.411	2.15198
853.786	2.12079
857.16	1.18414
860.535	1.07471
863.91	1.26318
867.285	2.1507
870.66	3.79773
874.034	0.010986
877.409	1.97656
880.784	0.26709
884.159	0.649719
887.534	4.04474
890.909	0.366943
894.283	2.0423
897.658	2.06628
901.033	2.1283
904.408	0.464417
907.783	0.245623
911.158	1.07983
914.532	2.25696
917.907	1.70569
921.282	0.282043
924.657	1.10059
928.032	0.895386
931.406	0.583862
934.781	1.20929
938.156	0.633179
941.531	1.49554
944.906	3.45416
948.28	1.258
951.655	3.10864
955.03	2.79791
958.405	2.13611
961.78	2.65192
965.154	2.20221
968.529	1.95587
971.904	0.491067
975.279	1.19892
978.654	0.239868
982.029	1.27887
985.403	1.39831
988.778	1.87543
992.153	2.31714
995.528	3.00092
998.903	6.20496
1002.28	4.23315
1005.65	5.01007
1009.03	4.65173
1012.4	5.07855
1015.78	6.32599
1019.15	5.9245
1022.53	4.69165
1025.9	2.17334
1029.28	4.40503
1032.65	4.88702
1036.03	4.5238
1039.4	4.138
1042.78	2.91583
1046.15	2.75696
1049.53	3.09876
1052.9	2.07141
1056.28	2.12237
1059.65	1.11343
1063.02	0.305969
1066.4	1.0712
1069.77	0.415405
1073.15	0.880737
1076.52	1.28577
1079.9	2.83331
1083.27	1.53632
1086.65	4.73666
1090.02	2.42886
1093.4	3.59808
1096.77	4.5506
1100.15	6.27335
1103.52	7.59155
1106.9	6.64032
1110.27	9.57056
1113.65	8.42444
1117.02	5.4223
1120.4	6.19202
1123.77	4.07455
1127.15	1.51901
1130.52	0.621002
1133.89	0.981598
1137.27	0.812073
1140.64	1.67679
1144.02	0.606018
1147.39	0.169159
1150.77	2.12155
1154.14	2.1246
1157.52	2.65674
1160.89	2.41531
1164.27	1.43832
1167.64	2.69492
1171.02	4.21878
1174.39	4.60257
1177.77	5.88959
1181.14	6.86478
1184.52	4.31329
1187.89	6.08035
1191.27	3.00311
1194.64	2.73349
1198.02	0.595856
1201.39	0.923004
1204.77	1.23526
1208.14	0.246124
1211.52	2.70538
1214.89	0.600403
1218.27	1.39856
1221.64	0.177277
1225.02	2.21307
1228.39	2.67505
1231.77	3.00842
1235.14	2.90607
1238.52	3.86761
1241.89	4.48386
1245.26	3.31378
1248.64	3.56613
1252.01	6.79724
1255.39	6.70795
1258.76	5.69943
1262.14	4.83969
1265.51	1.6283
1268.89	2.85141
