Measurement: Raman, 532 nm, unoriented, Raman Data Processed
Mineral: Monteregianite-(Y)
Rruff sample: R080109
Ideal chemistry: KNa_2_YSi_8_O_19_5H_2_O
Locality: Mont Saint-Hilaire, Quebec, Canada
Source: William W. Pinch
Description: Elongated cluster of grayish white fibers at the base of a cluster of terminated quartz crystals
Raman shift (cm-1)	intensity
139.119	0
142.494	7.99072
145.869	0.662598
149.243	17.2039
152.618	20.7583
155.993	37.1008
159.368	26.4978
162.743	30.9514
166.117	37.721
169.492	42.5615
172.867	39.2185
176.242	36.3181
179.617	31.9243
182.992	29.2278
186.366	30.4866
189.741	24.8557
193.116	19.0964
196.491	17.5064
199.865	15.1387
203.24	6.44531
206.615	4.19849
209.99	8.50488
213.365	10.262
216.74	11.8635
220.114	7.74097
223.489	2.37573
226.864	4.67383
230.239	2.90527
233.614	2.31641
236.988	0.99292
240.363	12.1548
243.738	16.3686
247.113	15.0107
250.488	22.3643
253.863	22.9651
257.237	21.5718
260.612	5.45679
263.987	6.45801
267.362	16.4773
270.737	29.4421
274.111	20.906
277.486	32.9326
280.861	31.3064
284.236	22.6643
287.611	18.0598
290.986	20.0308
294.36	18.2217
297.735	14.2236
301.11	15.7905
304.485	26.9241
307.86	21.9282
311.235	16.698
314.609	15.6938
317.984	19.7227
321.359	12.7913
324.734	16.113
328.109	6.11279
331.483	10.7266
334.858	4.60376
338.233	10.8047
341.608	5.37085
344.983	0.989502
348.358	4.49683
351.732	20.2053
355.107	13.8765
358.482	9.78076
361.857	4.99268
365.231	10.4033
368.606	12.9839
371.981	4.47827
375.356	0.869385
378.731	6.62085
382.106	8.95215
385.48	9.62646
388.855	6.06934
392.23	5.56665
395.605	5.3811
398.98	3.44751
402.354	1.72754
405.729	14.0437
409.104	4.54224
412.479	5.01294
415.854	16.6582
419.229	19.0347
422.603	25.0618
425.978	29.4116
429.353	23.5642
432.728	25.0261
436.103	31.2564
439.478	14.1304
442.852	6.43237
446.227	12.5576
449.602	18.5039
452.977	25.2727
456.352	28.3359
459.726	34.5483
463.101	32.3511
466.476	41.084
469.851	39.3062
473.226	42.9355
476.601	43.0071
479.975	41.9741
483.35	46.3227
486.725	46.7632
490.1	31.4959
493.475	24.9963
496.849	32.669
500.224	24.9111
503.599	18.0794
506.974	11.5308
510.349	1.80347
513.723	8.89233
517.098	10.4873
520.473	10.9956
523.848	1.55347
527.223	0.770508
530.598	6.59546
533.972	6.2583
537.347	5.95019
540.722	3.96094
544.097	16.3689
547.472	6.90796
550.846	12.8018
554.221	11.8555
557.596	7.54639
560.971	7.54321
564.346	6.35522
567.721	1.146
571.095	0.735107
574.47	2.39941
577.845	6.09204
581.22	21.0481
584.595	25.1284
587.969	30.2571
591.344	27.8735
594.719	47.6938
598.094	64.5642
601.469	88.9941
604.843	106.368
608.218	143.575
611.593	182.452
614.968	201.4
618.343	191.995
621.718	168.213
625.092	109.709
628.467	89.0559
631.842	74.8469
635.217	55.4133
638.592	36.9617
641.966	31.7075
645.341	9.79639
648.716	3.01709
652.091	2.57935
655.466	3.66675
658.841	7.73779
662.215	20.6409
665.59	11.9373
668.965	0.431152
672.34	8.9956
675.715	15.4302
679.09	13.8184
682.464	18.1956
685.839	9.65552
689.214	12.2856
692.589	19.7712
695.964	19.4504
699.338	26.73
702.713	25.5996
706.088	18.7188
709.463	8.36401
712.838	10.0039
716.212	2.55347
719.587	2.91235
722.962	3.56226
726.337	11.1702
729.712	16.9055
733.087	0.596924
736.461	4.75659
739.836	7.99243
743.211	3.24341
746.586	5.71948
749.961	0.488037
753.335	1.12988
756.71	2.57129
760.085	4.40991
763.46	8.80786
766.835	11.7092
770.21	12.0759
773.584	10.2595
776.959	10.511
780.334	9.80102
783.709	15.8074
787.084	23.4375
790.458	23.0452
793.833	19.9724
797.208	13.9929
800.583	5.46338
803.958	11.8669
807.332	16.1885
810.707	14.6848
814.082	5.62939
817.457	10.8706
820.832	10.8801
824.207	28.7351
827.581	1.34546
830.956	4.22363
834.331	4.21143
837.706	10.5464
841.081	10.0403
844.456	10.8682
847.83	5.12158
851.205	7.4082
854.58	13.0669
857.955	8.32446
861.33	2.86499
864.704	3.9314
868.079	8.18091
871.454	8.93848
874.829	4.10352
878.204	2.81763
881.578	2.81445
884.953	12.3477
888.328	16.0176
891.703	21.9653
895.078	11.1631
898.453	6.29102
901.827	12.3872
905.202	16.3364
908.577	10.873
911.952	8.96338
915.327	9.87451
918.702	10.7349
922.076	13.4624
925.451	16.832
928.826	19.1475
932.201	6.22705
935.576	6.96436
938.95	6.59473
942.325	1.47705
945.7	5.87012
949.075	0.578613
952.45	4.11426
955.824	14.4902
959.199	8.74756
962.574	10.7158
965.949	6.37061
969.324	15.1807
972.698	19.667
976.073	27.8828
979.448	28.313
982.823	27.1733
986.198	30.5747
989.573	40.3613
992.947	28.9834
996.322	34.9312
999.697	21.3667
1003.07	29.6201
1006.45	28.9736
1009.82	32.7231
1013.2	48.9609
1016.57	43.897
1019.95	30.9058
1023.32	35.2715
1026.7	30.415
1030.07	28.2368
1033.44	21.2656
1036.82	32.1138
1040.19	17.5293
1043.57	20.665
1046.94	6.75342
1050.32	3.40869
1053.69	3.09033
1057.07	8.98389
1060.44	8.46143
1063.82	7.5791
1067.19	2.34424
1070.57	2.33984
1073.94	0.367188
1077.32	1.77637
1080.69	9.98584
1084.07	9.79736
1087.44	14.0381
1090.82	12.3823
1094.19	20.4746
1097.57	28.5972
1100.94	38.3804
1104.32	34.7593
1107.69	43.2793
1111.07	33.6977
1114.44	37.04
1117.82	39.0772
1121.19	34.563
1124.57	27.7412
1127.94	21.8052
1131.32	27.0459
1134.69	23.4155
1138.07	32.5181
1141.44	19.3516
1144.81	21.7944
1148.19	6.45312
1151.56	5.01074
1154.94	2.41113
1158.31	2.40723
1161.69	12.583
1165.06	11.6577
1168.44	23.0186
1171.81	20.52
1175.19	18.437
1178.56	30.6255
1181.94	23.5298
1185.31	22.6577
1188.69	22.7207
1192.06	25.1392
1195.44	28.3384
1198.81	11.1582
1202.19	11.7398
1205.56	8.51758
1208.94	7.87939
1212.31	19.7852
1215.68	13.1421
1219.06	14.6924
1222.43	4.63477
1225.81	3.77246
1229.18	10.5801
1232.56	12.1636
1235.93	12.8809
1239.31	10.248
1242.68	2.3999
1246.06	5.57373
1249.43	16.0293
1252.81	19.4175
1256.18	8.2749
1259.56	7.73926
1262.93	7.56982
1266.31	14.5171
1269.68	3.73193
1273.06	15.0713
1276.43	6.86768
1279.81	6.3999
1283.18	12.4727
1286.56	20.9233
1289.93	20.5342
1293.31	12.6855
1296.68	8.96045
1300.06	9.7417
1303.43	3.25342
