Measurement: Raman, 780 nm, unoriented, Raman Data Processed
Mineral: Montmorillonite
Rruff sample: R110053
Ideal chemistry: (Na,Ca)_0.3_(Al,Mg)_2_Si_4_O_10_(OH)_2_nH_2_O
Locality: Chambers, Arizona, USA
Source: Ward's Natural Science Establishment, Inc.
Description: Tan colored consolidated powder
Raman shift (cm-1)	intensity
150.422	0
153.315	2.82214
156.207	10.328
159.1	6.12097
161.993	7.24719
164.885	19.0607
167.778	31.4281
170.671	35.2009
173.563	61.2544
176.456	44.2826
179.349	50.227
182.242	61.4514
185.134	76.2784
188.027	91.6277
190.92	119.432
193.812	138.524
196.705	160.396
199.598	150.067
202.49	128.518
205.383	88.979
208.276	63.1775
211.168	38.7273
214.061	18.8038
216.954	7.99927
219.847	0.687256
222.739	10.7175
225.632	0.144287
228.525	1.06934
231.417	6.51514
234.31	2.88428
237.203	6.56189
240.095	8.13208
242.988	1.63074
245.881	14.2661
248.774	0.893066
251.666	0.883301
254.559	5.85461
257.452	13.3527
260.344	8.98535
263.237	7.14514
266.13	6.49939
269.022	19.4586
271.915	17.7763
274.808	21.0046
277.701	24.5668
280.593	29.2559
283.486	41.335
286.379	49.6453
289.271	41.6628
292.164	34.5168
295.057	23.8538
297.95	14.4193
300.842	10.6942
303.735	5.47925
306.628	0.459473
309.52	3.04541
312.413	0.94397
315.306	3.17712
318.198	6.28625
321.091	4.2085
323.984	7.66748
326.877	11.4509
329.769	8.55151
332.662	8.33081
335.555	10.6516
338.447	6.90808
341.34	10.8503
344.233	0.531494
347.125	4.56616
350.018	11.1368
352.911	3.6217
355.803	15.0365
358.696	4.2279
361.589	11.0566
364.482	14.4072
367.374	3.49036
370.267	17.6544
373.16	7.23083
376.052	15.1178
378.945	8.9519
381.838	17.1411
384.731	8.10071
387.623	15.7312
390.516	25.4093
393.409	32.9368
396.301	36.2207
399.194	48.499
402.087	47.7438
404.979	43.559
407.872	61.3346
410.765	61.4969
413.658	68.7029
416.55	71.3217
419.443	82.147
422.336	87.9652
425.228	86.7084
428.121	94.0636
431.014	80.6631
433.906	93.4747
436.799	89.8718
439.692	77.0369
442.584	74.0327
445.477	75.6957
448.37	68.4273
451.263	57.839
454.155	57.6035
457.048	62.907
459.941	53.3252
462.833	42.6183
465.726	31.1578
468.619	25.462
471.512	32.9165
474.404	13.1189
477.297	16.5371
480.19	10.8154
483.082	15.183
485.975	3.38318
488.868	8.95044
491.76	6.48218
494.653	0.321655
497.546	0.026245
500.438	5.93738
503.331	0.803345
506.224	5.62927
509.117	4.80713
512.009	12.3101
514.902	10.0488
517.795	8.11572
520.687	12.1835
523.58	2.11243
526.473	3.1095
529.365	5.11047
532.258	7.07263
535.151	2.9541
538.044	2.07752
540.936	1.48877
543.829	14.0748
546.722	5.59058
549.614	5.75793
552.507	10.9673
555.4	6.6001
558.293	6.42578
561.185	8.49536
564.078	10.1957
566.971	15.2738
569.863	10.1739
572.756	14.848
575.649	8.64539
578.541	7.87402
581.434	17.2239
584.327	13.9705
587.22	7.13403
590.112	10.8585
593.005	11.7994
595.898	10.4273
598.79	11.0746
601.683	11.2875
604.576	13.9627
607.468	15.8207
610.361	11.4651
613.254	15.8168
616.146	18.9602
619.039	10.029
621.932	5.77795
624.825	9.57507
627.717	3.55225
630.61	13.6117
633.503	9.59949
636.395	5.39807
639.288	12.993
642.181	10.8301
645.073	2.22632
647.966	9.26953
650.859	3.20679
653.752	5.07556
656.644	4.4906
659.537	5.97363
662.43	8.46228
665.322	3.70483
668.215	9.70471
671.108	8.76892
674	18.7168
676.893	11.2267
679.786	20.5671
682.679	26.5356
685.571	43.9121
688.464	36.9699
691.357	61.8436
694.25	79.0101
697.142	110.165
700.035	128.61
702.928	167.308
705.82	185.213
708.713	186.866
711.606	159.795
714.498	106.214
717.391	76.4429
720.284	49.129
723.177	33.531
726.069	25.2256
728.962	17.4515
731.855	17.3816
734.747	7.52161
737.64	6.0221
740.533	0.308105
743.425	8.12305
746.318	1.93774
749.211	1.07044
752.104	0.836426
754.996	2.89734
757.889	3.66272
760.782	5.43982
763.674	11.327
766.567	4.15308
769.46	9.71301
772.352	11.443
775.245	9.95508
778.138	13.1945
781.03	19.2129
783.923	20.7758
786.816	14.1605
789.709	17.1642
792.601	27.9535
795.494	21.2925
798.387	27.7682
801.279	16.8518
804.172	11.3501
807.065	15.384
809.957	19.5466
812.85	17.7014
815.743	17.3477
818.636	8.8125
821.528	13.4568
824.421	16.6393
827.314	17.5399
830.206	20.9766
833.099	22.256
835.992	20.5404
838.885	25.0332
841.777	20.3837
844.67	23.8195
847.563	18.2319
850.455	18.3784
853.348	13.9998
856.241	20.4521
859.133	13.2053
862.026	2.37134
864.919	8.76184
867.812	8.83948
870.704	4.56976
873.597	7.57886
876.49	4.71893
879.382	13.6436
882.275	2.95917
885.168	4.76856
888.06	9.35474
890.953	3.62506
893.846	1.27075
896.739	4.89166
899.631	4.39581
902.524	2.22376
905.417	6.12903
908.309	4.48224
911.202	10.0541
914.095	8.81543
916.987	8.05304
919.88	17.1022
922.773	9.92389
925.665	1.21368
928.558	1.13342
931.451	8.41742
934.344	6.08179
937.236	10.3855
940.129	9.89429
943.022	9.42468
945.914	8.3045
948.807	8.56488
951.7	8.72382
954.592	4.0661
957.485	8.75513
960.378	7.47034
963.271	5.55902
966.163	0.819702
969.056	3.2774
971.949	6.435
974.841	0.551147
977.734	2.0954
980.627	1.10339
983.519	10.8141
986.412	5.09528
989.305	6.02313
992.198	11.558
995.09	11.3003
997.983	9.35553
1000.88	11.1703
1003.77	15.6815
1006.66	5.33722
1009.55	10.293
1012.45	14.9092
1015.34	9.08087
1018.23	4.69745
1021.12	14.7961
1024.02	12.0499
1026.91	10.8194
1029.8	13.3865
1032.69	15.7563
1035.59	5.33093
1038.48	2.50751
1041.37	2.7049
1044.27	5.81494
1047.16	1.96857
1050.05	3.28125
1052.94	2.27362
1055.84	0.29895
1058.73	8.42987
1061.62	2.15808
1064.52	12.2156
1067.41	11.4564
1070.3	4.98999
1073.19	9.21765
1076.09	3.62671
1078.98	0.568787
1081.87	2.11218
1084.76	7.69958
1087.66	0.798157
1090.55	5.50482
1093.44	6.02997
1096.34	7.62921
1099.23	9.66461
1102.12	20.9146
1105.01	11.0918
1107.91	13.5911
1110.8	13.9407
1113.69	14.5115
1116.58	7.55176
1119.48	12.5325
1122.37	0.622498
1125.26	7.77643
1128.15	5.6015
1131.05	9.80542
1133.94	2.65772
1136.83	0.947205
1139.72	0.345032
1142.62	1.16321
1145.51	0.86145
1148.4	6.72138
1151.3	6.86591
1154.19	0.508545
1157.08	3.87976
1159.97	2.71466
1162.87	1.64044
1165.76	11.2668
1168.65	0.21936
1171.55	6.12299
1174.44	12.8272
1177.33	8.20856
1180.22	20.6744
1183.12	11.061
1186.01	21.0888
1188.9	16.0324
1191.79	12.8762
1194.69	17.7948
1197.58	11.5637
1200.47	20.777
1203.37	16.8581
1206.26	15.0983
1209.15	29.4939
1212.04	16.5233
1214.94	24.7419
1217.83	28.032
1220.72	26.9914
1223.61	16.6442
1226.51	14.0162
1229.4	22.4533
1232.29	19.1602
1235.18	12.4645
1238.08	20.065
1240.97	19.4886
1243.86	9.37903
1246.76	15.7173
1249.65	10.6263
1252.54	13.2021
1255.43	1.57263
1258.33	5.37946
1261.22	4.29547
1264.11	7.44238
1267	0.359436
1269.9	8.15979
1272.79	2.9823
1275.68	4.65796
1278.58	5.17798
1281.47	5.29266
1284.36	2.21252
