Measurement: Raman, 780 nm, unoriented, Raman Data Processed
Mineral: Montmorillonite
Rruff sample: R110052
Ideal chemistry: (Na,Ca)_0.3_(Al,Mg)_2_Si_4_O_10_(OH)_2_nH_2_O
Locality: Santa Rita, New Mexico, USA
Source: Ward's Natural Science Establishment, Inc.
Description: Unconsolidated grains
Raman shift (cm-1)	intensity
164.403	0
167.296	1.56628
170.189	8.07617
173.081	16.4165
175.974	11.7556
178.867	10.3939
181.759	15.6819
184.652	21.833
187.545	35.514
190.437	58.8258
193.33	85.9043
196.223	109.276
199.115	115.831
202.008	106.312
204.901	81.6108
207.794	57.9866
210.686	31.822
213.579	18.6361
216.472	4.24097
219.364	9.78967
222.257	7.39062
225.15	1.25403
228.043	0.456787
230.935	6.89771
233.828	4.44385
236.721	6.51367
239.613	2.24158
242.506	1.55518
245.399	1.37854
248.292	3.9596
251.184	2.34167
254.077	0.955322
256.969	4.13354
259.862	3.5188
262.755	7.05444
265.648	9.16797
268.54	6.20544
271.433	4.23486
274.326	4.40186
277.218	12.4603
280.111	20.9498
283.004	25.8452
285.897	34.5207
288.789	38.6256
291.682	36.1068
294.575	20.9999
297.467	14.0515
300.36	13.2706
303.253	1.55408
306.145	2.94751
309.038	2.08887
311.931	0.845459
314.824	2.15063
317.716	5.28784
320.609	2.25867
323.502	4.0553
326.394	3.69165
329.287	5.03003
332.18	2.59436
335.072	3.22168
337.965	3.61511
340.858	2.88831
343.751	2.56421
346.643	0.566406
349.536	0.882446
352.429	4.83374
355.321	0.43689
358.214	1.15137
361.107	3.63098
364	0.975464
366.892	0.923584
369.785	4.45276
372.678	5.68323
375.57	2.42395
378.463	3.44214
381.356	8.18201
384.248	8.0581
387.141	7.98962
390.034	8.13928
392.926	13.4954
395.819	19.915
398.712	18.3308
401.605	28.3709
404.497	25.4154
407.39	27.8212
410.283	28.5846
413.175	32.807
416.068	37.3231
418.961	35.694
421.853	44.4479
424.746	43.344
427.639	47.5215
430.532	46.9548
433.424	48.3899
436.317	39.0433
439.21	40.9036
442.102	36.8953
444.995	34.6155
447.888	32.8188
450.781	27.7972
453.673	23.8339
456.566	24.7936
459.459	25.1711
462.351	19.449
465.244	13.5591
468.137	12.9672
471.029	10.6938
473.922	9.22668
476.815	11.2307
479.707	0.493042
482.6	0.596924
485.493	1.62781
488.386	3.82214
491.278	1.30456
494.171	0.595703
497.064	2.18726
499.956	2.51343
502.849	3.06348
505.742	2.47144
508.635	3.58398
511.527	6.02625
514.42	9.97266
517.313	8.58923
520.205	2.45056
523.098	2.72302
525.991	0.841553
528.883	0.027954
531.776	1.76306
534.669	0.007324
537.562	1.11035
540.454	1.04993
543.347	2.42517
546.24	1.3512
549.132	2.11267
552.025	1.81055
554.918	1.09766
557.81	3.31238
560.703	1.05176
563.596	1.84802
566.489	2.60303
569.381	1.88074
572.274	2.73206
575.167	1.18286
578.059	2.05676
580.952	2.60559
583.845	2.38367
586.737	5.29285
589.63	7.90332
592.523	6.07996
595.415	4.99402
598.308	7.27625
601.201	8.97839
604.094	12.0386
606.986	9.05615
609.879	6.68689
612.772	5.8103
615.664	4.6925
618.557	5.72546
621.45	5.82202
624.342	6.29419
627.235	9.125
630.128	6.30884
633.021	10.2532
635.913	6.51685
638.806	8.86694
641.699	6.96582
644.591	6.44257
647.484	4.60352
650.377	8.09485
653.269	0.250122
656.162	3.52893
659.055	0.865234
661.948	2.51941
664.84	1.1524
667.733	4.09857
670.626	2.20386
673.518	0.358521
676.411	3.81055
679.304	6.89526
682.197	7.0426
685.089	10.9367
687.982	16.3619
690.875	21.1068
693.767	35.7936
696.66	41.6912
699.553	60.5055
702.445	83.1836
705.338	111.556
708.231	121.886
711.124	110.018
714.016	82.5775
716.909	55.6539
719.802	40.8569
722.694	27.6336
725.587	18.8687
728.48	9.95642
731.372	13.2297
734.265	15.3612
737.158	6.53723
740.051	1.58771
742.943	4.50024
745.836	2.59216
748.729	3.4035
751.621	0.708313
754.514	2.03626
757.407	1.60254
760.299	2.57556
763.192	0.895691
766.085	0.475769
768.977	1.98444
771.87	1.32428
774.763	1.10181
777.656	5.73883
780.548	5.40301
783.441	6.59534
786.334	11.3749
789.226	12.738
792.119	16.0212
795.012	15.583
797.904	10.3345
800.797	9.83527
803.69	6.13354
806.583	8.24481
809.475	6.7193
812.368	6.32446
815.261	3.81854
818.153	5.1601
821.046	8.61377
823.939	3.84369
826.832	6.13507
829.724	4.84924
832.617	7.68024
835.51	7.31232
838.402	7.83795
841.295	6.05304
844.188	8.70636
847.08	5.89563
849.973	6.03949
852.866	6.24805
855.759	2.9964
858.651	2.64209
861.544	1.40802
864.437	3.09863
867.329	2.73248
870.222	3.32941
873.115	2.56934
876.007	3.76111
878.9	4.36719
881.793	0.440796
884.686	0.192932
887.578	2.66583
890.471	0.022766
893.364	0.291565
896.256	0.354797
899.149	1.86762
902.042	2.20215
904.934	3.16821
907.827	4.74036
910.72	5.15936
913.612	7.17181
916.505	5.97699
919.398	10.2659
922.291	7.3175
925.183	5.9596
928.076	13.4897
930.969	5.88544
933.861	6.67957
936.754	5.72455
939.647	5.40418
942.54	2.35175
945.432	2.57159
948.325	4.58289
951.218	3.51617
954.11	6.63532
957.003	3.81445
959.896	4.42621
962.788	1.5166
965.681	2.07306
968.574	2.23846
971.467	1.29187
974.359	2.19019
977.252	1.6698
980.145	1.13
983.037	4.96991
985.93	2.0144
988.823	1.69305
991.716	3.34576
994.608	2.33447
997.501	3.73486
1000.39	0.806519
1003.29	4.39819
1006.18	2.3786
1009.07	3.47662
1011.96	3.3288
1014.86	2.85059
1017.75	8.41931
1020.64	3.11261
1023.53	5.86774
1026.43	6.01813
1029.32	6.30029
1032.21	6.24945
1035.11	2.97315
1038	3.94781
1040.89	1.32929
1043.78	2.0672
1046.68	0.80719
1049.57	0.26123
1052.46	2.7146
1055.36	3.49499
1058.25	0.961548
1061.14	3.35913
1064.03	2.12366
1066.93	1.86139
1069.82	2.83051
1072.71	2.3548
1075.6	10.1517
1078.5	2.20288
1081.39	3.26709
1084.28	0.535889
1087.17	2.27942
1090.07	6.11035
1092.96	4.80865
1095.85	8.54706
1098.74	6.14648
1101.64	7.61114
1104.53	6.96747
1107.42	6.64764
1110.32	8.14777
1113.21	8.33612
1116.1	2.75238
1118.99	3.8092
1121.89	2.4671
1124.78	0.901917
1127.67	0.940552
1130.57	0.110291
1133.46	1.84393
1136.35	0.316284
1139.24	1.82855
1142.14	3.23761
1145.03	0.459534
1147.92	3.46606
1150.81	4.61847
1153.71	1.9726
1156.6	1.36096
1159.49	3.08551
1162.38	8.99085
1165.28	4.45581
1168.17	6.65497
1171.06	7.24121
1173.96	8.32172
1176.85	8.03064
1179.74	9.87512
1182.63	7.98242
1185.53	9.26862
1188.42	10.7018
1191.31	12.881
1194.2	13.5315
1197.1	14.5128
1199.99	13.2977
1202.88	14.0522
1205.78	12.433
1208.67	9.2132
1211.56	10.7147
1214.45	10.2611
1217.35	12.3021
1220.24	8.17932
1223.13	4.34003
1226.02	5.47565
1228.92	6.00421
1231.81	5.09808
1234.7	4.41083
1237.6	0.871277
1240.49	0.094482
1243.38	0.322937
1246.27	3.08106
1249.17	2.87738
1252.06	1.79254
1254.95	3.73138
1257.84	6.51202
1260.74	3.71179
1263.63	4.87323
1266.52	7.64954
1269.41	4.54871
1272.31	3.79651
1275.2	3.99359
1278.09	4.8335
1280.98	0.517395
1283.88	1.4071
