Measurement: Raman, 785 nm, unoriented, Raman Data Processed
Mineral: Moraesite
Rruff sample: R070480
Ideal chemistry: Be_2_PO_4_(OH)4H_2_O
Locality: Itinga, Minas Gerais, Brazil
Source: Bob Jenkins
Description: Unconsolidated colorless flat fragments
Raman shift (cm-1)	intensity
148.88	0
151.291	812.469
153.702	915.957
156.112	334.961
158.523	397.672
160.933	1163.61
163.344	1395.78
165.754	1301.98
168.165	1159.79
170.576	840.656
172.986	519.742
175.397	199.82
177.807	88.7871
180.218	238.699
182.629	99.8916
185.039	79.2012
187.45	14.9697
189.86	26.1709
192.271	58.9199
194.681	1.77246
197.092	70.3369
199.503	159.023
201.913	18.5352
204.324	14.3594
206.734	100.064
209.145	60.1387
211.555	30.0459
213.966	28.6162
216.377	22.5127
218.787	72.0859
221.198	132.456
223.608	35.7793
226.019	42.3272
228.43	26.8916
230.84	91.8154
233.251	16.5156
235.661	115.377
238.072	200.258
240.482	116.061
242.893	181.238
245.304	102.301
247.714	91.3076
250.125	236.228
252.535	20.9561
254.946	140.998
257.357	65.3398
259.767	104.804
262.178	25.2324
264.588	37.877
266.999	26.291
269.409	34.9492
271.82	5.86719
274.231	53.9951
276.641	118.93
279.052	73.4766
281.462	142.94
283.873	131.44
286.284	72.917
288.694	179.769
291.105	184.629
293.515	151.54
295.926	193.688
298.337	210.568
300.747	114.412
303.158	91.0508
305.568	127.7
307.979	95.667
310.389	76.1963
312.8	31.3818
315.211	64.6602
317.621	139.758
320.032	195.119
322.442	280.096
324.853	524.154
327.264	700.218
329.674	725.094
332.085	684.797
334.495	563.008
336.906	430.321
339.316	364.438
341.727	365.914
344.137	317.312
346.548	433.828
348.959	425.732
351.369	521.601
353.78	495.148
356.19	516.465
358.601	692.871
361.012	896.166
363.422	1150.93
365.833	1396.12
368.243	1793.56
370.654	2285.34
373.065	2637.36
375.475	2998.15
377.886	2846.27
380.296	2134.04
382.707	1373.73
385.118	842.809
387.528	440.16
389.939	293.136
392.349	199.565
394.76	154.1
397.17	132.209
399.581	152.564
401.991	196.699
404.402	248.319
406.813	285.666
409.223	375.845
411.634	335.903
414.045	629.374
416.455	630.144
418.866	545.986
421.276	311.701
423.687	167.622
426.097	102.716
428.508	60.2197
430.918	5.37891
433.329	2.63379
435.74	4.66309
438.15	8.69922
440.561	22.6348
442.971	5.47168
445.382	36.5098
447.793	100.772
450.203	74.5147
452.614	56.7441
455.024	95.5947
457.435	195.863
459.846	226.315
462.256	274.534
464.667	476.201
467.077	521.18
469.488	550.216
471.899	579.28
474.309	697.307
476.72	683.828
479.13	634.955
481.541	621.643
483.951	776.379
486.362	614.932
488.773	521.982
491.183	357.771
493.594	188.573
496.004	191.198
498.415	5.26269
500.825	2.6543
503.236	29.4717
505.647	61.5645
508.057	75.4668
510.468	108.99
512.878	35.2109
515.289	8.43848
517.7	78.3594
520.11	76.8418
522.521	118.618
524.931	74.6943
527.342	112.929
529.753	205.878
532.163	258.602
534.574	388.444
536.984	394.599
539.395	471.097
541.805	331.922
544.216	593.034
546.627	433.165
549.037	583.21
551.448	720.322
553.858	879.061
556.269	823.058
558.679	717.505
561.09	655.973
563.501	691.438
565.911	615.357
568.322	707.602
570.732	692.579
573.143	813.593
575.554	959.943
577.964	1100.82
580.375	1205.27
582.785	1413.18
585.196	1501.86
587.606	1385.34
590.017	1081.5
592.428	803.824
594.838	645.795
597.249	547.935
599.659	455.977
602.07	467.79
604.481	350.873
606.891	287.152
609.302	242.222
611.712	207.137
614.123	227.181
616.533	124.762
618.944	121.551
621.355	173.394
623.765	187.676
626.176	115.54
628.586	130.334
630.997	98.46
633.408	160.041
635.818	0.887695
638.229	24.9062
640.639	31.2881
643.05	94.0049
645.46	9.39355
647.871	99.9326
650.282	56.7285
652.692	38.1553
655.103	1.28418
657.513	53.5215
659.924	45.248
662.335	77.0186
664.745	67.9404
667.156	21.5977
669.566	133.481
671.977	131.228
674.388	123.387
676.798	222.169
679.209	245.47
681.619	253.166
684.03	364.975
686.44	511.505
688.851	591.052
691.261	721.606
693.672	695.101
696.083	774.774
698.493	734.105
700.904	669.79
703.314	597.627
705.725	551.602
708.136	509.388
710.546	289.048
712.957	273.071
715.367	175.206
717.778	198.03
720.188	116.155
722.599	86.6182
725.01	76.3701
727.42	8.19336
729.831	19.0205
732.241	32.543
734.652	74.6504
737.063	42.2842
739.473	73.7285
741.884	69.0215
744.294	12.7207
746.705	52.6201
749.115	40.4971
751.526	0.258789
753.937	16.6289
756.347	64.6064
758.758	77.2676
761.168	125.39
763.579	83.4805
765.99	52.3281
768.4	103.202
770.811	54.7393
773.221	77.0176
775.632	137.994
778.043	80.2891
780.453	88.3682
782.864	81.0732
785.274	115.577
787.685	145.868
790.096	96.3213
792.506	157.676
794.917	182.102
797.327	89.6953
799.738	112.191
802.148	71.4707
804.559	127.583
806.97	96.8428
809.38	31.7656
811.791	51.1885
814.201	109.986
816.612	44.1816
819.023	63.2402
821.433	104.963
823.844	32.3584
826.254	91.0693
828.665	59.081
831.075	15.7979
833.486	57.3613
835.896	6.74512
838.307	27.3799
840.718	74.793
843.128	14.1924
845.539	3.12305
847.949	69.0644
850.36	105.865
852.771	83.1797
855.181	54.3008
857.592	60.3623
860.002	39.1377
862.413	88.2266
864.823	24.1348
867.234	72.2988
869.645	110.939
872.055	60.1211
874.466	42.5264
876.876	114.208
879.287	103.098
881.698	20.2275
884.108	113.599
886.519	19.2988
888.929	14.9111
891.34	29.8633
893.75	51.6133
896.161	111.176
898.572	20.6445
900.982	67.9883
903.393	27.917
905.803	46.2568
908.214	14.7422
910.625	5.06934
913.035	76.71
915.446	129.709
917.856	16.585
920.267	61.2383
922.678	74.8682
925.088	52.9062
927.499	91.1113
929.909	100.028
932.32	109.457
934.731	89.9727
937.141	128.731
939.552	70.4775
941.962	172.876
944.373	104.179
946.783	197.236
949.194	108.129
951.605	110.523
954.015	105.099
956.426	76.2422
958.836	156.597
961.247	76.3721
963.658	109.681
966.068	31.4316
968.479	45.3154
970.889	30.5
973.3	25.9873
975.71	33.7949
978.121	44.4863
980.532	58.2402
982.942	69.6494
985.353	88.1826
987.763	46.5078
990.174	13.3984
992.585	55.5576
994.995	20.2256
997.406	3.67481
999.816	89.1055
1002.23	76.6963
1004.64	153.749
1007.05	260.372
1009.46	276.824
1011.87	482.777
1014.28	580.984
1016.69	866.537
1019.1	1099.18
1021.51	1305.59
1023.92	1573.5
1026.33	1788.75
1028.74	1744.81
1031.15	1569.9
1033.56	1329.91
1035.97	1107.8
1038.39	942.445
1040.8	784.775
1043.21	651.227
1045.62	453.915
1048.03	241.131
1050.44	225.924
1052.85	151.377
1055.26	9.84668
1057.67	95.9219
1060.08	3.66894
1062.49	69.1289
1064.9	22.4121
1067.31	41.4853
1069.72	75.4004
1072.13	25.1797
1074.54	20.6094
