Measurement: Raman, 532 nm, unoriented, Raman Data Processed
Mineral: Mordenite
Rruff sample: R061118
Ideal chemistry: (Na_2_,Ca,K_2_)_4_(Al_8_Si_40_)O_96_28H_2_O
Locality: Chipman's Brook, Nova Scotia, Canada
Source: Michael Scott
Description: Water worn white pebbles
Measured chemistry: (Na_5.47_Ca_0.29_K_2.01_)_Σ=7.77_(Al_8.06_Si_39.94_)O_96_·28H_2_O; H_2_O estimated by difference
Raman shift (cm-1)	intensity
169.948	0
172.841	13.6562
175.734	53.334
178.627	19.8105
181.519	74.1787
184.412	135.948
187.305	191.988
190.197	134.309
193.09	225.954
195.983	246.744
198.875	179.83
201.768	209.645
204.661	235.661
207.554	137.662
210.446	198.21
213.339	165.205
216.232	146.573
219.124	163.483
222.017	173.24
224.91	135.353
227.803	85.4766
230.695	138.171
233.588	120.253
236.481	120.38
239.373	129.83
242.266	70.7139
245.159	104.418
248.051	56.5586
250.944	37.707
253.837	16.0938
256.729	47.5967
259.622	85.8584
262.515	47.8506
265.408	62.9209
268.3	32.8672
271.193	86.3438
274.086	12.6152
276.978	63.706
279.871	20.166
282.764	38.0977
285.656	60.5703
288.549	141.216
291.442	55.7705
294.335	127.539
297.227	202.29
300.12	207.571
303.013	105.553
305.905	170.587
308.798	183.14
311.691	139.358
314.584	39.294
317.476	84.6641
320.369	187.518
323.262	115.256
326.154	132.931
329.047	56.9404
331.94	64.1279
334.832	72.7051
337.725	57.3164
340.618	6.78027
343.511	46.0762
346.403	3.06445
349.296	54.335
352.189	58.4658
355.081	89.8975
357.974	25.1074
360.867	62.124
363.76	80.8242
366.652	60.6963
369.545	139.982
372.438	225.732
375.33	213.172
378.223	257.997
381.116	427.579
384.008	494.129
386.901	616.391
389.794	721.303
392.687	754.433
395.579	790.286
398.472	752.435
401.365	872.056
404.257	556.06
407.15	409.839
410.043	354.807
412.935	341.692
415.828	212.427
418.721	282.865
421.613	230.73
424.506	180.569
427.399	300.818
430.292	314.051
433.184	216.328
436.077	384.027
438.97	322.69
441.862	361.773
444.755	280.723
447.648	269.441
450.541	246.875
453.433	290.547
456.326	370.721
459.219	449.465
462.111	604.273
465.004	705.641
467.897	723.742
470.789	814.287
473.682	639.17
476.575	561.365
479.467	431.014
482.36	324.693
485.253	281.174
488.146	111.996
491.038	85.8066
493.931	114.934
496.824	4.53125
499.716	41.9922
502.609	3.32227
505.502	5.55469
508.395	115.197
511.287	27.4844
514.18	17.1973
517.073	86.209
519.965	66.0117
522.858	8.38672
525.751	98.6777
528.643	38.9844
531.536	34.0137
534.429	116.756
537.322	15.0156
540.214	77.834
543.107	39.2637
546	1.16016
548.892	46.1465
551.785	72.5
554.678	46.1348
557.571	73.8066
560.463	108.674
563.356	90.6426
566.249	128.756
569.141	87.1582
572.034	85.9648
574.927	5.05273
577.819	13.084
580.712	133.582
583.605	59.1816
586.497	50.5957
589.39	76.0586
592.283	21.1758
595.176	110.832
598.068	44.4043
600.961	195.412
603.854	75.4531
606.746	179.141
609.639	38.4395
612.532	50.4883
615.424	52.7246
618.317	67.4473
621.21	19.9004
624.103	148.523
626.995	160.332
629.888	171.514
632.781	135.754
635.673	195.322
638.566	74.25
641.459	241.219
644.351	178.762
647.244	114.871
650.137	171.42
653.03	247.094
655.922	196.887
658.815	211.381
661.708	214.807
664.601	120.209
667.493	305.356
670.386	187.969
673.279	204.588
676.171	81.7109
679.064	73.082
681.957	91.793
684.849	106.922
687.742	71.3906
690.635	51.1699
693.528	135.844
696.42	100.744
699.313	34.0488
702.206	47.8359
705.098	155.986
707.991	53.2598
710.884	41.8867
713.776	233.885
716.669	206.523
719.562	171.853
722.455	160.836
725.347	77.1074
728.24	10.834
731.133	149.18
734.025	129.15
736.918	224.174
739.811	97.6191
742.703	118.029
745.596	122.717
748.489	24.1172
751.381	98.9356
754.274	85.0469
757.167	144.244
760.06	20.9199
762.952	168.457
765.845	42.25
768.738	151.639
771.63	176.705
774.523	61.9531
777.416	132.766
780.308	16.7227
783.201	145.039
786.094	178.387
788.987	224.738
791.879	85.6367
794.772	210.281
797.665	224.809
800.557	374.685
803.45	192.357
806.343	156.603
809.236	276.043
812.128	284.031
815.021	220.705
817.914	159.508
820.806	147.932
823.699	195.197
826.592	109.742
829.484	138.719
832.377	84.9863
835.27	125.332
838.163	21.8086
841.055	36.0703
843.948	56.5488
846.841	29.0449
849.733	35.3613
852.626	234.772
855.519	61.8027
858.411	91.0644
861.304	98.7852
864.197	102.986
867.09	126.711
869.982	104.951
872.875	73.6231
875.768	126.879
878.66	21.2559
881.553	74.5723
884.446	4.04102
887.338	108.846
890.231	115.621
893.124	126.586
896.016	139
898.909	87.8633
901.802	138.459
904.695	120.633
907.587	45.2539
910.48	85.0391
913.373	177.404
916.265	256.219
919.158	199.035
922.051	103.512
924.944	98.1035
927.836	156.023
930.729	79.9922
933.622	22.3086
936.514	156.607
939.407	25.8008
942.3	72.8652
945.192	89.5957
948.085	105.338
950.978	53.1699
953.871	94.0254
956.763	19.8281
959.656	93.1191
962.549	67.3359
965.441	22.1465
968.334	149.225
971.227	120.221
974.12	130.447
977.012	50.5234
979.905	161.943
982.798	189.713
985.69	111.494
988.583	246.793
991.476	157.922
994.368	144.482
997.261	53.5508
1000.15	205.846
1003.05	137.846
1005.94	139.924
1008.83	203.731
1011.73	265.156
1014.62	97.4356
1017.51	162.906
1020.4	109.227
1023.29	147.871
1026.19	140.258
1029.08	204.117
1031.97	57.2109
1034.87	98.8164
1037.76	142.723
1040.65	88.1211
1043.54	80.8867
1046.44	16.9258
1049.33	93.7969
1052.22	32.125
1055.12	67.2344
1058.01	21.7188
1060.9	19.9336
1063.79	134.898
1066.69	96.8477
1069.58	94.75
1072.47	172.516
1075.36	75.2969
1078.26	56.3867
1081.15	81.7188
1084.04	94.4961
1086.93	50.4766
1089.83	6.35547
1092.72	129.902
1095.61	89.4648
1098.51	84.0234
1101.4	72.4062
1104.29	59.0938
1107.18	75.7852
1110.08	2.53906
1112.97	51.9922
1115.86	101.957
1118.76	61.6953
1121.65	29.3477
1124.54	52.4961
1127.43	108.031
1130.33	23.4375
1133.22	266.492
1136.11	107.125
1139	179.938
1141.9	104.32
1144.79	193.172
1147.68	275.059
1150.57	375.008
1153.47	121.719
1156.36	18.7734
1159.25	213.68
1162.14	154.477
1165.04	278.09
1167.93	215.019
1170.82	89.7695
1173.72	140.164
1176.61	120.91
1179.5	175.871
1182.39	190.117
1185.29	147.137
1188.18	210.293
1191.07	111.672
1193.96	181.812
1196.86	118.027
1199.75	159.559
1202.64	61.5312
1205.54	94.8203
1208.43	184.277
1211.32	113.852
1214.21	30.6523
1217.11	73.6836
1220	216.332
1222.89	73.3945
1225.79	47.7461
1228.68	88.0469
1231.57	100.234
1234.46	68.3242
1237.36	122.879
1240.25	75.1523
1243.14	43.1875
1246.03	137.863
1248.93	184.898
1251.82	162.309
1254.71	58.2695
1257.6	85.5781
1260.5	89.0078
1263.39	96.2305
1266.28	384.91
1269.17	188.688
1272.07	293.5
1274.96	0.898438
1277.85	126.227
1280.75	131.719
1283.64	289.996
1286.53	178.356
1289.42	49.0117
1292.32	81.6641
1295.21	16.0039
1298.1	89.6328
1300.99	6.49609
1303.89	74.5273
1306.78	28.7734
