Measurement: Raman, 785 nm, unoriented, Raman Data Processed
Mineral: Mordenite
Rruff sample: R061118
Ideal chemistry: (Na_2_,Ca,K_2_)_4_(Al_8_Si_40_)O_96_28H_2_O
Locality: Chipman's Brook, Nova Scotia, Canada
Source: Michael Scott
Description: Water worn white pebbles
Measured chemistry: (Na_5.47_Ca_0.29_K_2.01_)_Σ=7.77_(Al_8.06_Si_39.94_)O_96_·28H_2_O; H_2_O estimated by difference
Raman shift (cm-1)	intensity
174.343	0
177.236	21.9923
180.128	36.8036
183.021	34.5891
185.914	59.3242
188.806	103.353
191.699	105.573
194.592	103.272
197.484	112.024
200.377	100.591
203.27	103.921
206.163	111.581
209.055	91.8699
211.948	76.8351
214.841	92.8002
217.733	106.66
220.626	110.026
223.519	90.2968
226.411	65.1027
229.304	96.904
232.197	56.3755
235.089	27.1156
237.982	38.4917
240.875	42.9752
243.768	14.5399
246.66	26.0614
249.553	26.6064
252.446	1.26062
255.338	38.5889
258.231	11.5588
261.124	29.3837
264.017	33.6788
266.909	14.7812
269.802	4.36707
272.695	22.7883
275.587	29.7744
278.48	1.24622
281.373	9.58118
284.265	32.0958
287.158	55.0267
290.051	81.2319
292.943	103.895
295.836	108.775
298.729	149.94
301.622	171.049
304.514	166.274
307.407	186.218
310.3	167.654
313.192	148.957
316.085	160.143
318.978	109.439
321.87	90.8068
324.763	89.7231
327.656	76.6111
330.549	66.3119
333.441	44.4548
336.334	32.7081
339.227	17.7524
342.119	9.73401
345.012	15.0881
347.905	23.8761
350.798	16.0016
353.69	5.86206
356.583	2.05396
359.476	34.4023
362.368	37.6433
365.261	74.8381
368.154	107.992
371.046	154.471
373.939	195.526
376.832	271.201
379.724	389.052
382.617	452.921
385.51	607.856
388.403	677.548
391.295	769.749
394.188	867.412
397.081	853.551
399.973	797.89
402.866	738.926
405.759	614.189
408.651	534.698
411.544	438.7
414.437	374.445
417.33	314.389
420.222	339.855
423.115	287.682
426.008	272.558
428.9	340.548
431.793	358.571
434.686	399.408
437.579	433.017
440.471	459.02
443.364	436.567
446.257	397.91
449.149	345.253
452.042	373.224
454.935	403.307
457.827	445.501
460.72	505.921
463.613	618.131
466.505	733.809
469.398	780.144
472.291	787.139
475.184	731.648
478.076	594.083
480.969	452.326
483.862	329.054
486.754	232.196
489.647	177.731
492.54	117.332
495.433	69.652
498.325	10.9025
501.218	5.82971
504.111	15.4248
507.003	12.4467
509.896	2.5835
512.789	2.71435
515.681	0.699463
518.574	16.865
521.467	19.071
524.36	0.613159
527.252	20.2834
530.145	24.9385
533.038	15.5941
535.93	28.5834
538.823	49.6626
541.716	62.8898
544.608	48.5402
547.501	29.3414
550.394	54.5082
553.286	57.9866
556.179	65.8157
559.072	52.2159
561.965	56.421
564.857	59.3069
567.75	10.4852
570.643	63.1555
573.535	42.8735
576.428	26.0311
579.321	26.5007
582.213	19.7411
585.106	28.1246
587.999	59.1148
590.891	35.6204
593.784	41.7405
596.677	38.6475
599.57	20.0829
602.462	45.5089
605.355	26.6716
608.248	28.3226
611.14	28.4061
614.033	33.433
616.926	33.1309
619.818	28.803
622.711	47.9767
625.604	29.6328
628.497	47.6726
631.389	37.6388
634.282	38.3539
637.175	11.7948
640.067	9.36206
642.96	23.2572
645.853	33.8058
648.745	29.1571
651.638	0.634644
654.531	48.1246
657.424	9.64026
660.316	26.0527
663.209	2.19495
666.102	5.35425
668.994	13.8737
671.887	17.1322
674.78	38.2817
677.673	19.1677
680.565	32.671
683.458	26.7881
686.351	14.4412
689.243	31.8866
692.136	5.53442
695.029	28.1462
697.921	9.50989
700.814	30.8129
703.707	22.3314
706.6	35.6023
709.492	33.9497
712.385	37.9371
715.278	28.0886
718.17	33.1758
721.063	22.1251
723.956	30.0287
726.848	0.778931
729.741	19.0102
732.634	15.7593
735.527	12.8447
738.419	13.4944
741.312	8.13672
744.205	32.7767
747.097	32.5048
749.99	15.9313
752.883	27.1857
755.775	17.7596
758.668	24.0288
761.561	9.28418
764.453	14.1443
767.346	39.9581
770.239	31.4976
773.132	25.2167
776.024	37.9962
778.917	49.7318
781.81	31.0588
784.702	59.54
787.595	37.6014
790.488	72.5635
793.38	75.6521
796.273	84.1362
799.166	65.4423
802.059	139.339
804.951	141.187
807.844	147.203
810.737	161.172
813.629	163.793
816.522	158.881
819.415	127.762
822.308	107.994
825.2	88.3403
828.093	83.3643
830.986	31.9811
833.878	26.278
836.771	37.9622
839.664	24.5193
842.556	26.2402
845.449	21.9194
848.342	12.7823
851.235	10.0808
854.127	12.9609
857.02	11.1381
859.913	1.36279
862.805	6.63025
865.698	49.6255
868.591	42.5924
871.483	17.1493
874.376	14.3102
877.269	36.5044
880.162	16.4619
883.054	17.0513
885.947	38.6616
888.84	36.3224
891.732	16.2246
894.625	17.8159
897.518	45.6486
900.41	13.7544
903.303	3.46155
906.196	36.843
909.088	19.1669
911.981	16.5508
914.874	27.2935
917.767	28.9979
920.659	38.2487
923.552	21.0385
926.445	65.8076
929.337	51.1226
932.23	94.7733
935.123	40.3488
938.015	43.1981
940.908	6.2113
943.801	32.9058
946.693	64.6115
949.586	1.54541
952.479	36.3467
955.372	11.589
958.264	39.0994
961.157	12.5607
964.05	56.8321
966.942	3.99133
969.835	51.0929
972.728	0.843262
975.62	22.2262
978.513	31.9382
981.406	27.9235
984.299	25.0676
987.191	23.9659
990.084	2.43188
992.977	35.6915
995.869	38.994
998.762	16.677
1001.65	31.3313
1004.55	34.1266
1007.44	22.295
1010.33	55.4614
1013.23	40.1977
1016.12	41.8713
1019.01	33.8527
1021.9	29.0057
1024.8	4.72681
1027.69	35.5085
1030.58	59.0867
1033.47	36.8722
1036.37	8.651
1039.26	31.651
1042.15	15.2445
1045.05	15.3469
1047.94	23.1207
1050.83	3.35193
1053.72	8.76209
1056.62	17.9087
1059.51	20.9338
1062.4	2.1875
1065.29	24.5649
1068.19	30.8781
1071.08	48.8013
1073.97	19.8035
1076.87	12.083
1079.76	14.4856
1082.65	20.6637
1085.54	12.9789
1088.44	18.178
1091.33	43.1031
1094.22	6.75464
1097.11	16.1252
1100.01	40.7256
1102.9	3.80713
1105.79	23.8418
1108.68	10.6492
1111.58	42.853
1114.47	13.4294
1117.36	22.4994
1120.26	21.0983
1123.15	60.7118
1126.04	45.4303
1128.93	48.6628
1131.83	88.3047
1134.72	75.8761
1137.61	45.6898
1140.5	65.5267
1143.4	56.386
1146.29	84.4995
1149.18	80.1984
1152.08	48.6605
1154.97	57.7981
1157.86	68.0769
1160.75	42.9975
1163.65	38.4781
1166.54	64.1974
1169.43	24.524
1172.32	81.3151
1175.22	45.4175
1178.11	27.0664
1181	21.5344
1183.89	34.9986
1186.79	25.2648
1189.68	25.4805
1192.57	42.01
1195.47	21.6604
1198.36	1.159
1201.25	0.341064
1204.14	28.9961
1207.04	21.994
1209.93	43.4656
1212.82	21.5137
1215.71	0.650879
1218.61	7.25818
1221.5	41.7965
1224.39	4.5387
1227.29	11.7161
1230.18	9.26001
