Measurement: Raman, 785 nm, unoriented, Raman Data Processed
Mineral: Mordenite
Rruff sample: R070524
Ideal chemistry: (Na_2_,Ca,K_2_)_4_(Al_8_Si_40_)O_96_28H_2_O
Locality: Calapooya River, near Dollar, Linn County, Oregon, USA
Source: James Shigley
Description: Aggregates of fine white fibers
Measured chemistry: (Na_3.08_Ca_2.37_K_0.15_)_Σ=5.60_(Al_7.97_Si_40.03_)O_96_·22H_2_O; H_2_O estimated by difference
Raman shift (cm-1)	intensity
168.647	0
171.54	7.66345
174.433	21.3266
177.326	22.151
180.218	41.763
183.111	12.1787
186.004	45.3989
188.896	32.1638
191.789	26.7634
194.682	14.157
197.574	27.3032
200.467	9.71558
203.36	43.282
206.252	5.96167
209.145	19.8613
212.038	24.2179
214.931	32.9888
217.823	36.7034
220.716	19.5514
223.609	44.0181
226.501	25.3087
229.394	20.2673
232.287	20.8422
235.179	37.6662
238.072	25.5185
240.965	23.8574
243.858	21.9829
246.75	18.4825
249.643	15.6711
252.536	33.7285
255.428	25.2935
258.321	23.0095
261.214	29.4571
264.106	4.5824
266.999	0.621399
269.892	3.73901
272.784	2.87781
275.677	9.95904
278.57	2.47009
281.463	36.0691
284.355	35.4226
287.248	19.1013
290.141	40.4468
293.033	56.2358
295.926	55.6969
298.819	38.2651
301.712	63.7364
304.604	57.6223
307.497	54.4946
310.39	65.2903
313.282	70.1674
316.175	63.316
319.068	44.7425
321.96	35.6154
324.853	32.9653
327.746	22.9898
330.639	37.1963
333.531	25.248
336.424	13.1261
339.317	23.2772
342.209	16.1209
345.102	4.91589
347.995	20.8679
350.887	2.19135
353.78	2.88312
356.673	0.897766
359.565	18.8312
362.458	3.25098
365.351	11.1982
368.244	10.3409
371.136	58.0175
374.029	65.0823
376.922	54.8186
379.814	108.724
382.707	146.152
385.6	165.728
388.493	214.875
391.385	243.869
394.278	243.129
397.171	276.507
400.063	241.918
402.956	260.739
405.849	227.084
408.741	173.337
411.634	140.388
414.527	135.926
417.42	120.705
420.312	93.6945
423.205	98.6676
426.098	97.0311
428.99	104.84
431.883	92.6183
434.776	100.012
437.668	99.3646
440.561	109.316
443.454	96.9938
446.346	105.496
449.239	96.0634
452.132	123.474
455.025	136.242
457.917	156.106
460.81	175.183
463.703	211.126
466.595	240.727
469.488	243.788
472.381	222.791
475.273	206.337
478.166	165.009
481.059	113.189
483.952	100.563
486.844	66.5784
489.737	33.0802
492.63	15.2365
495.522	5.90451
498.415	6.5358
501.308	0.462402
504.2	2.91476
507.093	2.63434
509.986	6.67227
512.879	0.28244
515.771	0.890228
518.664	1.14685
521.557	0.113068
524.449	1.19958
527.342	19.8863
530.235	0.981781
533.127	11.6724
536.02	22.2068
538.913	17.4948
541.806	22.7534
544.698	14.5161
547.591	18.2347
550.484	14.3287
553.376	18.5257
556.269	16.0498
559.162	30.8204
562.054	5.15518
564.947	11.1436
567.84	20.906
570.732	19.7227
573.625	23.7042
576.518	15.2855
579.411	12.1227
582.303	12.3095
585.196	5.96686
588.089	20.8813
590.981	0.875153
593.874	3.56415
596.767	14.8181
599.659	9.31439
602.552	1.06998
605.445	7.90958
608.338	10.9204
611.23	11.1067
614.123	11.4921
617.016	7.81705
619.908	11.3804
622.801	0.934021
625.694	15.331
628.587	14.3579
631.479	15.3488
634.372	17.2874
637.264	9.14627
640.157	3.23102
643.05	8.97086
645.943	25.7024
648.835	0.743347
651.728	17.4049
654.621	5.68991
657.513	16.9535
660.406	13.2078
663.299	22.7943
666.192	23.102
669.084	1.36948
671.977	14.7496
674.87	13.6334
677.762	2.32007
680.655	15.9691
683.548	23.465
686.44	2.67581
689.333	9.17731
692.226	7.98733
695.119	5.90277
698.011	6.35358
700.904	5.858
703.797	14.7302
706.689	31.5686
709.582	11.9512
712.475	39.5603
715.367	11.4858
718.26	13.7787
721.153	0.011566
724.045	18.2485
726.938	13.3763
729.831	16.62
732.724	12.7271
735.616	7.63901
738.509	15.6115
741.402	12.7187
744.294	3.67245
747.187	16.3838
750.08	17.2508
752.972	19.2605
755.865	3.55878
758.758	2.28815
761.651	16.7466
764.543	17.7738
767.436	8.77795
770.329	17.05
773.221	15.5665
776.114	25.6314
779.007	27.8366
781.899	23.0106
784.792	14.691
787.685	10.7401
790.578	39.5765
793.47	26.5561
796.363	45.3984
799.256	41.7101
802.148	45.8723
805.041	58.759
807.934	76.0041
810.827	76.688
813.719	58.0192
816.612	64.9808
819.505	51.4655
822.397	40.7332
825.29	29.3537
828.183	18.3813
831.075	14.65
833.968	17.0088
836.861	20.7685
839.753	0.093445
842.646	19.0985
845.539	12.6617
848.432	17.1379
851.324	3.81335
854.217	11.1945
857.11	2.83356
860.002	24.7093
862.895	17.3924
865.788	22.0834
868.68	9.99872
871.573	0.671997
874.466	26.7885
877.359	22.414
880.251	1.81165
883.144	3.89139
886.037	5.8891
888.929	6.08279
891.822	20.7775
894.715	11.152
897.607	0.542236
900.5	3.2309
903.393	11.0442
906.285	20.6457
909.178	12.6815
912.071	16.0169
914.964	26.4064
917.856	5.77737
920.749	15.9556
923.642	4.46539
926.534	21.5814
929.427	3.63226
932.32	14.4651
935.212	11.8596
938.105	14.3831
940.998	7.41904
943.891	16.1368
946.783	27.4899
949.676	0.189117
952.569	11.9042
955.461	18.2301
958.354	14.1183
961.247	6.64099
964.139	7.51556
967.032	11.3171
969.925	6.05142
972.818	2.17615
975.71	22.7307
978.603	16.8743
981.496	2.14481
984.388	16.8372
987.281	28.3047
990.174	24.7851
993.067	3.61649
995.959	22.5011
998.852	14.1939
1001.75	9.51807
1004.64	3.53098
1007.53	0.605804
1010.42	17.2505
1013.32	25.6064
1016.21	18.5959
1019.1	17.856
1021.99	14.2338
1024.89	4.29132
1027.78	6.20831
1030.67	19.8205
1033.56	26.2443
1036.46	20.1939
1039.35	13.3148
1042.24	21.7918
1045.13	15.2912
1048.03	18.1556
1050.92	10.6898
1053.81	18.2853
1056.71	20.3097
1059.6	18.1855
1062.49	25.4983
1065.38	17.0438
1068.28	11.9337
1071.17	20.7862
1074.06	15.1559
1076.95	9.59918
1079.85	15.4809
1082.74	8.48621
1085.63	1.2009
1088.53	8.14475
1091.42	12.5902
1094.31	18.0307
1097.2	14.8952
1100.1	3.52631
1102.99	2.27887
1105.88	5.64206
1108.77	11.2604
1111.67	7.70059
1114.56	9.41342
1117.45	9.84653
1120.35	18.2656
1123.24	20.0045
1126.13	21.5347
1129.02	22.0134
1131.92	1.31873
1134.81	13.8541
1137.7	31.5119
1140.59	21.9814
1143.49	2.91769
1146.38	7.5911
1149.27	16.2357
1152.16	15.1471
1155.06	17.2865
1157.95	12.5408
1160.84	8.21982
1163.74	17.7725
1166.63	27.3985
1169.52	19.2409
1172.41	21.1744
1175.31	19.3615
1178.2	9.14172
1181.09	15.853
1183.98	22.2472
1186.88	1.0925
1189.77	14.3508
1192.66	22.2986
1195.56	22.5719
1198.45	17.6137
1201.34	19.3715
1204.23	5.78644
1207.13	23.2325
1210.02	21.5913
1212.91	20.7444
1215.8	23.2884
1218.7	17.0734
1221.59	14.9981
1224.48	1.50855
1227.38	8.10358
1230.27	3.24586
1233.16	6.94527
1236.05	15.408
1238.95	12.1024
1241.84	0.199661
1244.73	1.40317
1247.62	10.2804
1250.52	27.5629
1253.41	11.397
1256.3	2.10666
1259.19	6.59747
1262.09	6.67722
1264.98	13.1595
