Measurement: Raman, 532 nm, unoriented, Raman Data Processed
Mineral: Morinite
Rruff sample: R070529
Ideal chemistry: NaCa_2_Al_2_(PO_4_)_2_(OH)F_4_2H_2_O
Locality: Hugo mine, Keystone, Pennington County, South Dakota, USA
Source: James Shigley
Description: Pale purple massive associated with white fluorapatite and colorless augelite
Raman shift (cm-1)	intensity
161.726	0
164.619	224.606
167.512	231.916
170.404	64.7461
173.297	283.277
176.19	114.769
179.082	231.096
181.975	90.7969
184.868	144.596
187.761	49.3223
190.653	81.582
193.546	251.816
196.439	43.207
199.331	92.1426
202.224	178.992
205.117	469.424
208.009	480.053
210.902	750.707
213.795	738.59
216.688	1077.39
219.58	1449.21
222.473	1381.3
225.366	1368.24
228.258	1047.27
231.151	672.318
234.044	486.018
236.936	215.478
239.829	128.408
242.722	226.83
245.614	304.641
248.507	100.887
251.4	371.15
254.293	104.943
257.185	96.1191
260.078	33.877
262.971	101.769
265.863	67.7812
268.756	141.637
271.649	150.631
274.541	118.566
277.434	58.0703
280.327	186.141
283.22	202.334
286.112	161.209
289.005	343.553
291.898	48.418
294.79	95.2207
297.683	69.4883
300.576	64.041
303.469	103.141
306.361	71.3926
309.254	142.137
312.147	224.254
315.039	315.842
317.932	330.99
320.825	267.791
323.717	402.691
326.61	425.391
329.503	300.252
332.396	337.644
335.288	217.096
338.181	266.68
341.074	142.06
343.966	2.31055
346.859	143.41
349.752	43.6836
352.644	272.668
355.537	243.883
358.43	319.469
361.322	188.481
364.215	167.5
367.108	189.176
370.001	85.0625
372.893	47.9863
375.786	60.3105
378.679	42.0645
381.572	65.2559
384.464	17.2227
387.357	55.7441
390.25	89.2793
393.142	187.791
396.035	232.758
398.928	324.586
401.82	553.754
404.713	665.279
407.606	781.879
410.498	1060.92
413.391	1028.05
416.284	1093.04
419.177	1220.85
422.069	966.584
424.962	1092.85
427.855	1105.27
430.747	789.26
433.64	710.742
436.533	643.648
439.425	672.992
442.318	460.728
445.211	527.377
448.104	503.438
450.996	371.34
453.889	558.477
456.782	482.473
459.674	443.488
462.567	432.107
465.46	355.717
468.353	264.57
471.245	153.074
474.138	35.4883
477.031	113.303
479.923	65.8828
482.816	223.006
485.709	176.881
488.601	173.316
491.494	78.0644
494.387	9.54297
497.279	235.934
500.172	198.223
503.065	195.615
505.958	139.664
508.85	459.637
511.743	482.228
514.636	599.436
517.528	704.57
520.421	662.688
523.314	676.793
526.207	614.66
529.099	605.59
531.992	658.352
534.885	566.479
537.777	401.94
540.67	346.318
543.563	271.277
546.455	343.904
549.348	261.065
552.241	154.478
555.134	120.131
558.026	125.742
560.919	50.6445
563.812	52.3457
566.704	33.1465
569.597	56.0957
572.49	163.461
575.382	29.4023
578.275	132.262
581.168	141.725
584.061	7.50781
586.953	137.57
589.846	311.072
592.739	336.631
595.631	94.5312
598.524	0.765625
601.417	113.199
604.309	140.367
607.202	307.938
610.095	1.38672
612.987	150.422
615.88	285.883
618.773	272.773
621.666	398.137
624.558	612.754
627.451	1021.42
630.344	1293.51
633.236	1681
636.129	1368.96
639.022	998.547
641.915	583.201
644.807	333.74
647.7	286.867
650.593	84.9512
653.485	28.3145
656.378	8.91211
659.271	18.9375
662.163	46.0176
665.056	45.5039
667.949	69.6309
670.842	84.7227
673.734	65.2129
676.627	68.6641
679.52	179.846
682.412	97.4492
685.305	67.0527
688.198	11.8848
691.091	236.24
693.983	120.539
696.876	8.74414
699.769	178.565
702.661	141.332
705.554	150.709
708.447	29.1523
711.339	110.666
714.232	131.144
717.125	289.441
720.018	69.1016
722.91	0.833984
725.803	50.0801
728.696	241.943
731.588	215.688
734.481	168.074
737.374	258.209
740.266	276.459
743.159	293.391
746.052	300.016
748.944	357.438
751.837	238.988
754.73	65.9238
757.623	264.191
760.515	274.617
763.408	168.84
766.301	95.3438
769.193	181.283
772.086	257.752
774.979	60.5117
777.871	91.9277
780.764	97.8086
783.657	126.082
786.55	226.367
789.442	256.93
792.335	43.9043
795.228	58.4648
798.12	62.4609
801.013	131.969
803.906	101.885
806.798	80.5664
809.691	31.1211
812.584	179.838
815.477	42.8711
818.369	9.85156
821.262	47.0293
824.155	242.272
827.047	274.664
829.94	183.734
832.833	113.49
835.726	78.2402
838.618	50.6016
841.511	100.676
844.404	171.387
847.296	307.662
850.189	236.838
853.082	352.4
855.975	209.514
858.867	325.717
861.76	418.094
864.653	462.135
867.545	353.537
870.438	340.305
873.331	360.568
876.223	354.451
879.116	386.326
882.009	482.965
884.902	344.174
887.794	330.055
890.687	405.578
893.58	471.883
896.472	335.018
899.365	158.74
902.258	148.697
905.15	196.541
908.043	245.178
910.936	267.889
913.828	78.0898
916.721	99.6699
919.614	9.80078
922.507	111.193
925.399	41.2715
928.292	89.5039
931.185	68.2988
934.077	8.38867
936.97	15.0898
939.863	107.449
942.755	139.15
945.648	259.344
948.541	159.559
951.434	187.764
954.326	791.467
957.219	1863.35
960.112	3367.22
963.004	4958.6
965.897	3983.69
968.79	1308.35
971.683	442.293
974.575	273.586
977.468	218.594
980.361	78.9941
983.253	34.4844
986.146	90.7422
989.039	147.098
991.931	147.684
994.824	7.39258
997.717	20.8867
1000.61	146.213
1003.5	81.2422
1006.39	65.7012
1009.29	103.795
1012.18	227.627
1015.07	186.086
1017.97	78.9434
1020.86	119.08
1023.75	75.0977
1026.64	161.879
1029.54	365.522
1032.43	223.215
1035.32	133.82
1038.21	24.7031
1041.11	161.484
1044	95.3711
1046.89	308.002
1049.79	623.33
1052.68	652.156
1055.57	513.811
1058.46	232.32
1061.36	164.606
1064.25	214.58
1067.14	233.947
1070.03	162.34
1072.93	200.891
1075.82	172.379
1078.71	206.992
1081.61	224.141
1084.5	182.705
1087.39	46.5703
1090.28	87.668
1093.18	233.865
1096.07	464.562
1098.96	561.141
1101.85	823.018
1104.75	947.033
1107.64	989.168
1110.53	1088.88
1113.42	972.764
1116.32	734.418
1119.21	492.594
1122.1	330.291
1125	366.231
1127.89	394.945
1130.78	341.44
1133.67	358.871
1136.57	227.484
1139.46	204.334
1142.35	287.471
1145.24	126.711
1148.14	170.943
1151.03	130.199
1153.92	235.248
1156.82	139.137
1159.71	136.043
1162.6	71.5527
1165.49	48.0332
1168.39	65.4648
1171.28	79.916
1174.17	100.606
1177.06	142.68
1179.96	243.012
1182.85	210.053
1185.74	142.727
1188.63	132.402
1191.53	107.178
1194.42	145.723
1197.31	21.2832
1200.21	79.5469
1203.1	91.9707
1205.99	40.832
1208.88	16.0234
1211.78	54.6836
1214.67	113.945
1217.56	318.748
1220.45	466.277
1223.35	391.258
1226.24	277.879
1229.13	116.988
1232.03	3.63672
1234.92	184.141
1237.81	121.115
1240.7	50.1387
1243.6	118.055
1246.49	32.3828
1249.38	103.779
1252.28	160.627
1255.17	104.49
1258.06	30.6309
1260.95	167.4
1263.85	192.758
1266.74	180.494
1269.63	314.877
1272.52	194.535
1275.42	79.0273
1278.31	134.869
1281.2	30.0684
1284.09	185.795
1286.99	184.34
1289.88	183.299
1292.77	148.398
1295.66	84.2148
