Measurement: Raman, 532 nm, unoriented, Raman Data Processed
Mineral: Motukoreaite
Rruff sample: R070337
Ideal chemistry: Mg_6_Al_3_(OH)_18_[Na(H_2_O)_6_](S^6+^O_4_)_2_6H_2_O
Locality: Motukorea (Brown's Island), near Auckland, New Zealand
Source: Michael Scott
Description: Very pale yellow cement to microcrystalline
Raman shift (cm-1)	intensity
193.052	0
195.945	58.4102
198.838	113.971
201.731	45.9316
204.623	17.2715
207.516	83.0019
210.409	134.816
213.301	83.0508
216.194	219.586
219.087	136.981
221.979	245.205
224.872	194.24
227.765	173.701
230.657	221.443
233.55	186.144
236.443	171.363
239.336	261.836
242.228	290.701
245.121	279.463
248.014	382.887
250.906	295.539
253.799	309.512
256.692	379.041
259.584	419.154
262.477	339.617
265.37	479.652
268.263	487.828
271.155	589.242
274.048	736.922
276.941	817.494
279.833	824.947
282.726	687.285
285.619	505.603
288.512	383.25
291.404	340.318
294.297	252.812
297.19	159.572
300.082	150.641
302.975	261.822
305.868	180.369
308.76	212.016
311.653	138.402
314.546	45.0645
317.438	39.0742
320.331	176.131
323.224	100.4
326.117	157.578
329.009	65.0606
331.902	65.7832
334.795	12.6875
337.687	50.9844
340.58	52.8555
343.473	10.8926
346.365	180.094
349.258	14.666
352.151	70.4668
355.044	122.555
357.936	100.783
360.829	153.361
363.722	167.871
366.614	55.4805
369.507	71.9707
372.4	115.057
375.293	112.658
378.185	169.356
381.078	47.5273
383.971	93.9531
386.863	42.0547
389.756	94.0859
392.649	122.176
395.541	49.6953
398.434	106.644
401.327	76.1953
404.219	45.1055
407.112	0.765625
410.005	10.2305
412.898	199.34
415.79	12.7734
418.683	28.9375
421.576	81.7539
424.469	248.242
427.361	194.328
430.254	50.3242
433.147	161.332
436.039	123.758
438.932	143.812
441.825	206.91
444.717	158.719
447.61	171.238
450.503	18.0664
453.396	164.555
456.288	140.289
459.181	110.008
462.074	166.844
464.966	149.562
467.859	212.426
470.752	4.80859
473.644	24.2812
476.537	3.03516
479.43	72.0078
482.322	75.5938
485.215	80.6562
488.108	120.906
491.001	97.4531
493.893	169.773
496.786	17.1016
499.679	39.9844
502.571	247.902
505.464	62.9648
508.357	174.606
511.25	284.945
514.142	141.062
517.035	155.582
519.928	66.4141
522.82	104.969
525.713	179.074
528.606	140.035
531.498	95.2812
534.391	316.598
537.284	99.1484
540.177	67.6484
543.069	201.305
545.962	82.3516
548.855	102.949
551.747	59.3086
554.64	130.328
557.533	33.3516
560.425	139.488
563.318	46.1758
566.211	99.293
569.104	134.051
571.996	35.0469
574.889	3.64062
577.782	7.39844
580.674	140.34
583.567	3.52344
586.46	55.9766
589.352	173.023
592.245	95.4258
595.138	141.172
598.031	210.664
600.923	182.297
603.816	70.9961
606.709	181.047
609.601	244.66
612.494	115.445
615.387	208.754
618.279	219.352
621.172	221.363
624.065	315.664
626.958	238.168
629.85	130.539
632.743	243.426
635.636	303.207
638.528	323.82
641.421	131.188
644.314	403.441
647.207	391.168
650.099	357.875
652.992	422.148
655.885	169.148
658.777	247.582
661.67	300.856
664.563	146.492
667.455	214.375
670.348	186.582
673.241	154.109
676.134	242.695
679.026	150.106
681.919	150.152
684.812	147.106
687.704	102.457
690.597	206.293
693.49	188.363
696.382	180.488
699.275	78.7773
702.168	135.016
705.061	257.188
707.953	277.871
710.846	344.195
713.739	319.297
716.631	102.164
719.524	44.5898
722.417	20.8164
725.309	20.1211
728.202	73.5859
731.095	72.832
733.987	82.4609
736.88	40.6562
739.773	10.8906
742.666	152
745.558	36.7812
748.451	115.754
751.344	58.8281
754.236	37.2148
757.129	60.1719
760.022	130.277
762.915	48.6055
765.807	117.078
768.7	57.5391
771.593	95.5
774.485	194.012
777.378	47.8203
780.271	55.8711
783.163	285.863
786.056	141.715
788.949	162.609
791.842	237.777
794.734	81.2812
797.627	249.731
800.52	308.473
803.412	189.816
806.305	107.258
809.198	156.062
812.091	168.242
814.983	65.8438
817.876	17.8945
820.769	179.707
823.661	129.508
826.554	160.391
829.447	87.5039
832.339	59.5742
835.232	94.6875
838.125	237.707
841.018	176.684
843.91	14.5781
846.803	177.266
849.696	88.8945
852.588	19.6367
855.481	165.539
858.374	88.4883
861.266	185.375
864.159	130.051
867.052	124.062
869.944	190.625
872.837	80.4883
875.73	127.934
878.623	324.309
881.515	118.688
884.408	166.805
887.301	115.703
890.193	96.8984
893.086	274.914
895.979	248.992
898.871	83.7812
901.764	209.117
904.657	245.715
907.55	336.805
910.442	141.668
913.335	72.6289
916.228	177.363
919.12	276.191
922.013	83.0703
924.906	180.106
927.798	9.73047
930.691	252.664
933.584	19.75
936.477	136.809
939.369	35.9883
942.262	41.1719
945.155	418.484
948.047	26.1836
950.94	349.758
953.833	186.731
956.726	239.273
959.618	310.391
962.511	109.332
965.404	128.293
968.296	46.0469
971.189	120.801
974.082	210.297
976.974	320.965
979.867	278.555
982.76	136.637
985.653	217.773
988.545	205.238
991.438	127.742
994.331	223.539
997.223	54.832
1000.12	36.8203
1003.01	162.375
1005.9	144.586
1008.79	153.961
1011.69	81.9102
1014.58	122.234
1017.47	125.312
1020.37	251.356
1023.26	264.648
1026.15	311.422
1029.04	29.3555
1031.94	249
1034.83	34.7539
1037.72	83.2852
1040.61	143.438
1043.51	22.3008
1046.4	92.9922
1049.29	9.57812
1052.18	33.0703
1055.08	116.961
1057.97	28.207
1060.86	272.879
1063.76	178.289
1066.65	147.691
1069.54	63.2734
1072.43	418
1075.33	383.195
1078.22	872.473
1081.11	1791.33
1084	2223.57
1086.9	2349.77
1089.79	968.703
1092.68	357.227
1095.58	228.93
1098.47	143.82
1101.36	9.50781
1104.25	192.086
1107.15	69.8086
1110.04	185.617
1112.93	167.394
1115.82	13.6367
1118.72	41.6836
1121.61	122.594
1124.5	208.516
1127.39	99.1562
1130.29	93.6758
1133.18	46.8438
1136.07	52.875
1138.97	231.738
1141.86	224.269
1144.75	146.875
1147.64	226.16
1150.54	202.031
1153.43	152.094
1156.32	313.137
1159.21	137.061
1162.11	207.731
1165	290.113
1167.89	272.551
1170.79	63.4062
1173.68	84.7148
1176.57	101.481
1179.46	146.727
1182.36	181.262
1185.25	183.102
1188.14	161.769
1191.03	122.438
1193.93	121.297
1196.82	257.523
1199.71	0.25
1202.61	119.285
1205.5	13.1367
1208.39	195.473
1211.28	318.309
1214.18	104.398
1217.07	23.9258
1219.96	76.75
1222.85	132.035
1225.75	16.7773
1228.64	205.051
1231.53	73.2656
1234.42	292.16
1237.32	109.547
1240.21	197.453
1243.1	112.168
1246	93.0039
1248.89	163.231
1251.78	125.379
1254.67	32.7539
1257.57	165.672
1260.46	185.856
1263.35	142.789
1266.24	259.715
1269.14	91.3945
1272.03	358.906
1274.92	204.648
1277.82	84.3242
1280.71	78.9102
1283.6	208.898
1286.49	214.246
1289.39	155.68
1292.28	73.7695
1295.17	132.871
1298.06	71.9531
1300.96	89.7656
1303.85	25.0781
1306.74	24.2344
