Measurement: Raman, 785 nm, unoriented, Raman Data Processed
Mineral: Motukoreaite
Rruff sample: R070337
Ideal chemistry: Mg_6_Al_3_(OH)_18_[Na(H_2_O)_6_](S^6+^O_4_)_2_6H_2_O
Locality: Motukorea (Brown's Island), near Auckland, New Zealand
Source: Michael Scott
Description: Very pale yellow cement to microcrystalline
Raman shift (cm-1)	intensity
209.729	0
212.622	52.261
215.514	21.4855
218.407	96.5947
221.3	128.348
224.192	144.221
227.085	165.697
229.978	53.9994
232.87	160.286
235.763	106.327
238.656	297.451
241.549	210.394
244.441	257.186
247.334	260.559
250.227	185.587
253.119	185.681
256.012	255.65
258.905	315.426
261.798	419.106
264.69	342.055
267.583	467.987
270.476	436.049
273.368	437.226
276.261	552.305
279.154	546.01
282.046	423.13
284.939	378.059
287.832	219.582
290.724	277.643
293.617	290.635
296.51	135.027
299.403	157.35
302.295	115.591
305.188	234.98
308.081	131.581
310.973	118.448
313.866	109.175
316.759	134.91
319.651	117.94
322.544	81.3246
325.437	114.287
328.33	204.843
331.222	110.694
334.115	30.4873
337.008	22.8944
339.9	54.0993
342.793	7.98853
345.686	33.211
348.579	11.7722
351.471	17.3028
354.364	77.3896
357.257	13.0306
360.149	122.894
363.042	169.514
365.935	3.66026
368.827	7.19335
371.72	64.0195
374.613	125.487
377.505	42.2819
380.398	31.6033
383.291	65.4324
386.184	6.95163
389.076	83.3118
391.969	44.2632
394.862	28.5138
397.754	79.8446
400.647	56.6105
403.54	82.4383
406.433	142.729
409.325	83.065
412.218	6.52389
415.111	49.4192
418.003	33.4296
420.896	113.981
423.789	110.674
426.681	134.926
429.574	37.8399
432.467	61.1328
435.36	2.16574
438.252	39.7069
441.145	106.062
444.038	91.1772
446.93	88.3537
449.823	123.295
452.716	96.4985
455.608	57.9955
458.501	61.5355
461.394	59.5644
464.286	159.314
467.179	268.95
470.072	125.389
472.965	101.934
475.857	10.3294
478.75	3.31552
481.643	21.846
484.535	84.7539
487.428	43.828
490.321	75.1894
493.214	138.957
496.106	139.858
498.999	40.0469
501.892	98.0413
504.784	76.3961
507.677	91.2289
510.57	117.699
513.462	58.3345
516.355	49.0106
519.248	115.948
522.14	29.655
525.033	71.2412
527.926	28.4796
530.819	68.4732
533.711	159.527
536.604	79.0737
539.497	45.7289
542.389	60.0904
545.282	2.78828
548.175	91.9189
551.067	55.4033
553.96	13.7161
556.853	114.776
559.745	74.5008
562.638	78.4959
565.531	19.9901
568.424	5.09936
571.316	35.5078
574.209	58.7149
577.102	4.94679
579.994	126.449
582.887	152.747
585.78	36.8886
588.673	90.919
591.565	92.3143
594.458	4.68512
597.351	94.1791
600.243	109.628
603.136	35.4616
606.029	104.867
608.921	121.354
611.814	78.7183
614.707	22.4155
617.6	88.5499
620.492	60.0405
623.385	2.3059
626.278	69.8447
629.17	115.605
632.063	81.0042
634.956	51.9342
637.848	61.4578
640.741	74.4926
643.634	52.4983
646.527	32.21
649.419	54.4067
652.312	78.6441
655.205	66.597
658.097	31.3377
660.99	9.32432
663.883	38.0379
666.775	22.2008
669.668	75.3497
672.561	23.6262
675.454	86.6628
678.346	15.3463
681.239	183.75
684.132	164.19
687.024	59.9057
689.917	128.444
692.81	92.3396
695.702	118.456
698.595	253.876
701.488	206.695
704.381	167.229
707.273	191.715
710.166	247.607
713.059	237.923
715.951	180.032
718.844	156.448
721.737	72.7048
724.63	147.549
727.522	39.0262
730.415	30.9043
733.308	30.834
736.2	29.315
739.093	19.8139
741.986	31.8302
744.878	0.801243
747.771	70.6425
750.664	131.268
753.557	52.4923
756.449	14.2765
759.342	53.5929
762.235	2.01352
765.127	78.1386
768.02	60.432
770.913	34.199
773.805	25.291
776.698	65.2748
779.591	49.6611
782.484	3.08179
785.376	30.9341
788.269	23.3909
791.162	60.2427
794.054	66.5204
796.947	106.223
799.84	74.8577
802.732	178.441
805.625	84.6045
808.518	44.7611
811.41	164.867
814.303	20.348
817.196	80.2837
820.089	154.237
822.981	26.2089
825.874	107.111
828.767	81.7981
831.659	82.9381
834.552	38.3927
837.445	43.7367
840.337	14.605
843.23	10.7983
846.123	127.414
849.016	0.024469
851.908	7.22797
854.801	96.3436
857.694	57.5285
860.586	25.9817
863.479	31.9425
866.372	0.171051
869.264	14.9706
872.157	50.8424
875.05	121.646
877.943	98.6343
880.835	92.2104
883.728	10.3249
886.621	53.9474
889.513	112.13
892.406	110.147
895.299	32.1656
898.192	96.516
901.084	31.293
903.977	73.5228
906.87	132.347
909.762	37.6031
912.655	46.7809
915.548	78.6702
918.44	11.8393
921.333	76.2969
924.226	113.888
927.119	82.7271
930.011	29.906
932.904	39.5528
935.797	82.3029
938.689	63.0047
941.582	51.8503
944.475	109.013
947.367	6.27781
950.26	34.9665
953.153	6.93933
956.045	54.5451
958.938	5.05521
961.831	69.225
964.724	30.0776
967.616	30.2774
970.509	7.43132
973.402	54.3996
976.294	128.752
979.187	25.9525
982.08	90.0045
984.972	57.2874
987.865	80.5343
990.758	10.774
993.651	26.8171
996.543	21.1609
999.436	56.0314
1002.33	33.6035
1005.22	37.8108
1008.11	50.3967
1011.01	106.1
1013.9	91.5269
1016.79	50.0136
1019.68	13.7846
1022.58	36.0687
1025.47	94.9982
1028.36	61.0996
1031.26	20.7611
1034.15	61.9047
1037.04	30.9633
1039.93	7.50883
1042.83	21.1001
1045.72	152.751
1048.61	9.5572
1051.51	107.317
1054.4	50.9252
1057.29	2.24885
1060.18	0.632448
1063.08	154.287
1065.97	129.103
1068.86	72.3108
1071.75	65.7473
1074.65	131.615
1077.54	204.768
1080.43	454.537
1083.32	727.101
1086.22	930.58
1089.11	474.64
1092	128.244
1094.89	56.363
1097.79	0.588266
1100.68	8.92451
1103.57	52.6585
1106.47	44.3612
1109.36	72.785
1112.25	47.597
1115.14	14.6348
1118.04	17.408
1120.93	13.5051
1123.82	16.4419
1126.71	79.749
1129.61	146.676
1132.5	99.7426
1135.39	92.1195
1138.29	80.2332
1141.18	89.8838
1144.07	81.1608
1146.96	126.871
1149.86	149.69
1152.75	147.832
1155.64	238.343
1158.53	209.841
1161.43	135.949
1164.32	153.242
1167.21	172.034
1170.11	142.385
1173	163.478
1175.89	134.774
1178.78	98.6556
1181.68	78.8249
1184.57	173.74
1187.46	117.72
1190.35	193.276
1193.25	83.6921
1196.14	100.814
1199.03	122.611
1201.92	102.963
1204.82	69.852
1207.71	39.6177
1210.6	69.2335
1213.5	37.8718
1216.39	40.5268
1219.28	171.9
1222.17	54.2724
1225.07	34.8785
1227.96	39.5175
