Measurement: Raman, 780 nm, unoriented, Raman Data Processed
Mineral: Muirite
Rruff sample: R120160
Ideal chemistry: Ba_10_Ca_2_Mn^2+^Ti^4+^Si_10_O_30_(OH)_10_
Locality: Gun Claim, MacMillian Pass, Itsy Mts, Watson Lake Mining District, Yukon Territory, Canada
Source: Donald Doell
Description: Orange-red massive, associated with colorless sanbornite with good cleavage, diopside, and witherite.
Raman shift (cm-1)	intensity
112.413	0
115.787	15.8247
119.162	32.3569
122.537	79.0005
125.912	110.409
129.287	97.3613
132.662	65.1089
136.036	49.064
139.411	40.0562
142.786	29.5635
146.161	28.957
149.536	26.2402
152.911	15.0986
156.285	11.0518
159.66	1.68994
163.035	1.18164
166.41	0.912109
169.785	8.57666
173.159	1.82959
176.534	5.96484
179.909	3.16113
183.284	19.4482
186.659	25.0205
190.033	31.5049
193.408	18.4805
196.783	8.05908
200.158	4.18359
203.533	16.4399
206.907	29.1743
210.282	28.3628
213.657	42.7832
217.032	47.7949
220.407	47.8076
223.782	47.1328
227.156	31.5684
230.531	18.9424
233.906	30.2432
237.281	30.894
240.656	33.9541
244.03	56.6865
247.405	59.9424
250.78	66.2944
254.155	64.8755
257.53	79.6521
260.904	97.3496
264.279	105.462
267.654	103.714
271.029	96.1094
274.404	78.7185
277.779	61.9731
281.153	42.0232
284.528	33.1653
287.903	48.4312
291.278	80.2664
294.653	121.155
298.027	181.244
301.402	204.938
304.777	199.114
308.152	175.644
311.527	142.384
314.902	128.686
318.276	106.809
321.651	96.2156
325.026	52.7571
328.401	36.6731
331.776	10.1597
335.151	6.83984
338.525	5.39844
341.9	4.16602
345.275	6.95117
348.65	6.44458
352.024	13.5613
355.399	33.9419
358.774	34.3291
362.149	32.1194
365.524	20.4206
368.899	29.4751
372.273	33.4817
375.648	43.5806
379.023	68.7202
382.398	80.9453
385.773	81.2756
389.147	76.033
392.522	51.4187
395.897	30.7122
399.272	11.9934
402.647	7.66064
406.022	6.24902
409.396	8.61768
412.771	17.9194
416.146	18.8352
419.521	15.1511
422.896	1.10474
426.27	1.77661
429.645	7.29541
433.02	8.58813
436.395	3.15967
439.77	11.895
443.144	7.69067
446.519	0.163574
449.894	6.77515
453.269	20.0437
456.644	30.3096
460.019	43.498
463.393	52.6733
466.768	56.3738
470.143	58.0979
473.518	59.2615
476.893	60.0911
480.267	71.4575
483.642	78.6775
487.017	74.4165
490.392	70.9053
493.767	74.354
497.142	68.5105
500.516	60.4307
503.891	97.4026
507.266	104.011
510.641	129.008
514.016	154.526
517.39	169.628
520.765	185.092
524.14	200.441
527.515	221.977
530.89	210.033
534.264	204.517
537.639	197.181
541.014	196.102
544.389	200.661
547.764	202.01
551.139	192.485
554.513	190.615
557.888	183.054
561.263	166.558
564.638	140.96
568.013	123.532
571.388	89.1997
574.762	79.9573
578.137	64.0298
581.512	62.8638
584.887	54.6123
588.261	44.1484
591.636	35.5395
595.011	30.5054
598.386	14.5891
601.761	12.4453
605.136	23.6668
608.51	8.28467
611.885	5.99805
615.26	6.12622
618.635	3.89551
622.01	2.90894
625.385	1.30884
628.759	8.63696
632.134	2.17603
635.509	6.02734
638.884	0.968262
642.259	8.18774
645.633	0.95459
649.008	8.479
652.383	11.3955
655.758	29.0542
659.133	70.4724
662.507	95.478
665.882	105.222
669.257	66.4719
672.632	52.0632
676.007	56.7751
679.381	106.535
682.756	184.731
686.131	288.581
689.506	283.6
692.881	143.738
696.256	59.3325
699.63	20.3345
703.005	1.97632
706.38	4.06934
709.755	1.00781
713.13	4.26733
716.505	9.552
719.879	19.0911
723.254	20.8997
726.629	20.7634
730.004	32.8284
733.379	30.4644
736.753	33.1065
740.128	35.8013
743.503	36.2293
746.878	40.926
750.253	36.4546
753.627	25.6062
757.002	26.4934
760.377	34.729
763.752	35.5122
767.127	37.4797
770.501	40.0591
773.876	32.1294
777.251	33.8953
780.626	44.2549
784.001	34.834
787.376	26.1926
790.75	23.8845
794.125	17.762
797.5	9.38525
800.875	3.12305
804.25	6.73804
807.625	2.19458
810.999	2.55396
814.374	0.380615
817.749	16.1706
821.124	14.8249
824.499	13.9402
827.873	16.5488
831.248	11.2957
834.623	14.304
837.998	21.6851
841.373	36.8359
844.747	56.7593
848.122	66.0122
851.497	84.3342
854.872	87.0393
858.247	101.365
861.621	97.9602
864.996	101.673
868.371	100.046
871.746	89.6094
875.121	78.6394
878.495	65.9487
881.87	68.6206
885.245	80.0405
888.62	55.1262
891.995	55.624
895.37	43.2305
898.744	41.4097
902.119	24.9544
905.494	18.9873
908.869	8.59351
912.244	5.75708
915.619	12.1204
918.993	11.1067
922.368	2.88672
925.743	8.24976
929.118	15.5774
932.493	17.6841
935.867	17.9514
939.242	13.6907
942.617	14.3154
945.992	7.6311
949.367	7.84399
952.741	6.56958
956.116	0.203369
959.491	0.924561
962.866	5.19019
966.241	9.04834
969.615	1.25269
972.99	2.27466
976.365	0.64209
979.74	7.51587
983.115	8.62158
986.49	6.67041
989.864	13.2856
993.239	27.7361
996.614	34.3635
999.989	59.2117
1003.36	106.732
1006.74	152.307
1010.11	208.905
1013.49	197.228
1016.86	129.533
1020.24	73.9092
1023.61	59.2839
1026.99	56.4553
1030.36	63.4395
1033.74	48.8774
1037.11	62.6936
1040.49	77.5337
1043.86	93.2664
1047.24	100.726
1050.61	101.332
1053.99	115.199
1057.36	103.894
1060.74	64.9246
1064.11	21.4126
1067.48	2.33838
1070.86	7.19238
1074.23	7.75977
1077.61	4.54394
1080.98	1.59985
1084.36	4.96338
1087.73	7.65332
1091.11	8.71216
1094.48	12.4707
1097.86	13.1992
1101.23	13.2231
1104.61	14.3445
1107.98	13.6548
1111.36	12.4873
1114.73	11.8882
1118.11	9.35059
1121.48	7.771
1124.86	5.00732
1128.23	11.7295
1131.61	0.801514
1134.98	1.28198
1138.36	11.1291
1141.73	5.83154
1145.11	6.46606
1148.48	0.720703
1151.86	6.48486
1155.23	5.20996
1158.61	4.23413
1161.98	2.198
1165.36	4.60718
1168.73	11.0234
1172.1	12.3772
1175.48	9.30737
1178.85	12.0972
1182.23	1.95606
1185.6	1.76172
1188.98	5.07104
1192.35	7.60938
1195.73	6.52856
1199.1	14.939
1202.48	19.145
1205.85	18.4431
1209.23	18.9006
1212.6	28.1914
1215.98	38.4898
1219.35	32.625
1222.73	33.0398
1226.1	55.1602
1229.48	24.7949
1232.85	30.1079
1236.23	22.7595
1239.6	11.1484
1242.97	9.76636
1246.35	0.395264
1249.72	3.61816
1253.1	1.56811
1256.47	1.40649
1259.85	11.7346
1263.22	30.4995
1266.6	8.92212
1269.97	12.5862
1273.35	27.6216
1276.72	22.4983
1280.1	12.2685
1283.47	0.037109
