Measurement: Raman, , unoriented, Raman Data RAW
Mineral: Mullite
Rruff sample: R150147
Ideal chemistry: Al_4+2x_Si_2-2x_O_10-x_ (x  0.4)
Locality: Northwest of Ormsaig, Ross of Mull, Scotland
Source: Nicolas Bost, Portion of a sample from the Musée de Minéralogie MINES Paristech, Paris, France, #
Description: Pink grains. Sample used in Bost et al (2016)
Raman shift (cm-1)	intensity
164.325	0.03679
167.557	0.1389
170.789	0.30383
174.019	0.50783
177.249	0.65922
180.477	0.76115
183.704	0.86404
186.93	0.91144
190.156	0.9616
193.379	1.08479
196.602	1.23101
199.824	1.31524
203.045	1.46846
206.265	1.5109
209.483	1.48798
212.701	1.52577
215.917	1.49308
219.132	1.46816
222.346	1.45007
225.56	1.30703
228.772	1.24681
231.983	1.18603
235.193	1.13852
238.401	1.06692
241.609	0.99474
244.816	1.03928
248.022	0.98861
251.226	0.95308
254.43	0.88462
257.632	0.87246
260.833	0.88333
264.033	0.90846
267.233	0.95019
270.431	1.00435
273.628	0.7736
276.824	0.74554
280.019	0.72292
283.212	0.69092
286.405	0.68661
289.597	0.71607
292.788	0.73476
295.977	0.74175
299.166	0.74816
302.353	0.71682
305.539	0.74669
308.725	0.79506
311.909	0.75312
315.092	0.71706
318.274	0.67946
321.455	0.67056
324.635	0.63311
327.814	0.63743
330.992	0.70871
334.169	0.68154
337.344	0.63416
340.519	0.59406
343.692	0.54352
346.865	0.55393
350.036	0.52779
353.207	0.53229
356.376	0.48197
359.545	0.48801
362.712	0.47846
365.878	0.47294
369.043	0.46726
372.207	0.49135
375.37	0.50169
378.532	0.50484
381.693	0.48065
384.853	0.49093
388.012	0.44853
391.169	0.43359
394.326	0.44472
397.482	0.40498
400.636	0.46078
403.79	0.52299
406.942	0.54042
410.094	0.61827
413.244	0.67529
416.393	0.69264
419.542	0.68816
422.689	0.72251
425.835	0.71573
428.98	0.71202
432.124	0.72598
435.267	0.71759
438.409	0.6279
441.55	0.71897
444.69	0.69432
447.829	0.67555
450.967	0.68014
454.104	0.6538
457.239	0.66404
460.374	0.65751
463.508	0.64365
466.64	0.66404
469.772	0.66102
472.902	0.72491
476.032	0.77819
479.16	0.80331
482.288	0.76332
485.414	0.72968
488.539	0.74598
491.664	0.70277
494.787	0.69624
497.909	0.68185
501.03	0.66291
504.151	0.77941
507.27	0.71863
510.388	0.76628
513.505	0.7752
516.621	0.80427
519.736	0.77365
522.85	0.79217
525.963	0.7286
529.074	0.75224
532.185	0.72514
535.295	0.77915
538.404	0.71762
541.512	0.7234
544.618	0.68169
547.724	0.69066
550.829	0.70409
553.932	0.63468
557.035	0.70378
560.136	0.63082
563.237	0.66638
566.337	0.67297
569.435	0.74041
572.532	0.75115
575.629	0.78595
578.724	0.89699
581.819	0.99962
584.912	1.05316
588.004	1.20504
591.096	1.3035
594.186	1.34609
597.275	1.46458
600.364	1.41641
603.451	1.35394
606.537	1.30307
609.622	1.15245
612.706	1.0902
615.79	0.90219
618.872	0.8189
621.953	0.70491
625.033	0.56403
628.112	0.54917
631.19	0.43627
634.267	0.26757
637.343	0.2322
640.418	0.14828
643.492	0.08992
646.565	0.04319
649.637	0.0105
652.708	0
655.778	0.01333
658.847	0.01705
661.915	0.02858
664.982	0.11117
668.048	0.11855
671.112	0.14824
674.176	0.18817
677.239	0.16244
680.301	0.24849
683.362	0.26839
686.422	0.29707
689.481	0.33358
692.538	0.42441
695.595	0.50326
698.651	0.52357
701.706	0.65642
704.76	0.67351
707.812	0.69309
710.864	0.64528
713.915	0.77515
716.965	0.66819
720.013	0.7312
723.061	0.6291
726.108	0.62465
729.154	0.65282
732.198	0.62899
735.242	0.59302
738.285	0.5225
741.327	0.47971
744.367	0.48756
747.407	0.45306
750.446	0.36056
753.484	0.26461
756.52	0.19787
759.556	0.19256
762.591	0.09698
765.625	0.05163
768.657	0.0126
771.689	0
774.72	0.01461
777.75	0.0205
780.779	0.0528
783.806	0.06311
786.833	0.09103
789.859	0.08372
792.884	0.1136
795.908	0.14692
798.93	0.168
801.952	0.20574
804.973	0.21603
807.993	0.26945
811.012	0.27188
814.03	0.34691
817.046	0.37287
820.062	0.43859
823.077	0.45274
826.091	0.49341
829.104	0.53701
832.116	0.59732
835.127	0.62025
838.137	0.74401
841.146	0.79841
844.154	0.93501
847.161	1.06378
850.167	1.11721
853.172	1.25242
856.176	1.41034
859.179	1.48251
862.181	1.61977
865.182	1.63124
868.182	1.62685
871.182	1.54094
874.18	1.50231
877.177	1.46754
880.173	1.30911
883.168	1.25927
886.163	1.18708
889.156	1.14196
892.148	1.05466
895.139	1.05337
898.13	0.98563
901.119	0.98909
904.107	0.99693
907.095	1.00814
910.081	0.95928
913.067	1.03677
916.051	1.07303
919.035	1.05462
922.017	1.11354
924.999	1.15502
927.979	1.18996
930.959	1.24072
933.937	1.27052
936.915	1.3609
939.892	1.44276
942.867	1.53501
945.842	1.61678
948.816	1.81597
951.789	1.86822
954.761	1.96025
957.731	2.08262
960.701	2.02741
963.67	2.06433
966.638	1.97541
969.605	1.95121
972.571	1.95274
975.536	1.84633
978.5	1.8381
981.463	1.75673
984.426	1.76269
987.387	1.66247
990.347	1.64508
993.306	1.4889
996.265	1.43159
999.222	1.3751
1002.18	1.29686
1005.13	1.2615
1008.09	1.14627
1011.04	1.10299
1013.99	1.09664
1016.95	0.86786
1019.9	0.97601
1022.85	0.84258
1025.79	0.85604
1028.74	0.79699
1031.69	0.72315
1034.63	0.73605
1037.58	0.63261
1040.52	0.52893
1043.47	0.54524
1046.41	0.52112
1049.35	0.47916
1052.29	0.41029
1055.23	0.45857
1058.17	0.42353
1061.1	0.36155
1064.04	0.39363
1066.98	0.36348
1069.91	0.39669
1072.84	0.33886
1075.78	0.35854
1078.71	0.37095
1081.64	0.43015
1084.57	0.3896
1087.5	0.42768
1090.42	0.45747
1093.35	0.48555
1096.28	0.47495
1099.2	0.50362
1102.12	0.51941
1105.05	0.56133
1107.97	0.56403
1110.89	0.60299
1113.81	0.72643
1116.73	0.84362
1119.65	0.96321
1122.57	0.98465
1125.48	1.08608
1128.4	1.07408
1131.31	1.06485
1134.23	1.031
1137.14	0.90331
1140.05	0.85361
1142.96	0.79598
1145.87	0.79965
1148.78	0.79388
1151.69	0.7573
1154.59	0.66796
1157.5	0.7694
1160.4	0.74218
1163.31	0.64229
1166.21	0.64863
1169.11	0.61494
1172.01	0.58449
1174.92	0.6125
1177.81	0.57075
1180.71	0.53125
1183.61	0.49454
1186.51	0.42939
1189.4	0.45134
1192.3	0.35692
1195.19	0.34296
1198.08	0.30264
1200.98	0.34185
1203.87	0.25838
1206.76	0.19353
1209.65	0.29694
1212.53	0.21299
1215.42	0.21021
1218.31	0.19176
1221.19	0.18837
1224.08	0.13333
1226.96	0.11338
1229.84	0.13215
1232.72	0.06015
1235.61	0.08753
1238.49	0.02103
