Measurement: Raman, 532 nm, unoriented, Raman Data Processed
Mineral: Mullite
Rruff sample: R141101
Ideal chemistry: Al_4+2x_Si_2-2x_O_10-x_ (x  0.4)
Locality: Caspar quarry, Bellerberg volcano, Mayen, Eifel, Germany
Source: Ch. and H. Sch√§fer
Description: Violet acicular crystals
Raman shift (cm-1)	intensity
140.687	0
144.062	11.006
147.437	7.96606
150.812	4.22839
154.187	11.9132
157.561	5.88086
160.936	0.385742
164.311	2.56909
167.686	5.66846
171.061	21.0498
174.436	24.6064
177.81	31.2478
181.185	32.5607
184.56	43.5605
187.935	48.1519
191.31	43.7876
194.685	29.3019
198.059	25.6779
201.434	36.8705
204.809	31.4236
208.184	11.0238
211.559	9.4718
214.933	5.03735
218.308	6.22864
221.683	1.92725
225.058	5.21704
228.433	1.43066
231.808	2.0614
235.182	11.0823
238.557	13.9888
241.932	12.2002
245.307	13.0088
248.682	18.8855
252.056	35.4849
255.431	52.5354
258.806	80.1443
262.181	110.551
265.556	168.113
268.93	224.373
272.305	216.004
275.68	141.665
279.055	80.5288
282.43	51.5127
285.805	44.2239
289.179	31.8618
292.554	28.7893
295.929	21.9561
299.304	30.7422
302.679	33.5901
306.053	38.3621
309.428	32.7002
312.803	25.7656
316.178	24.3005
319.553	26.7583
322.928	33.1658
326.302	40.7244
329.677	44.1709
333.052	33.0244
336.427	22.8987
339.802	15.0796
343.176	13.1475
346.551	9.99365
349.926	12.4854
353.301	6.64209
356.676	7.72705
360.051	0.379639
363.425	4.20654
366.8	3.19775
370.175	3.03638
373.55	0.918701
376.925	2.02832
380.3	7.93921
383.674	13.9026
387.049	17.094
390.424	21.2632
393.799	27.2493
397.174	40.2053
400.548	56.5061
403.923	62.5869
407.298	56.727
410.673	53.2419
414.048	61.7261
417.423	72.1916
420.797	87.3953
424.172	88.2236
427.547	65.1008
430.922	34.9507
434.296	11.9983
437.671	7.08154
441.046	21.438
444.421	15.9612
447.796	34.1321
451.171	42.0483
454.545	33.2219
457.92	13.1714
461.295	0.34375
464.67	0.341797
468.045	1.34424
471.42	6.77832
474.794	17.4407
478.169	16.2082
481.544	24.0078
484.919	23.606
488.294	29.8745
491.668	37.1321
495.043	24.0491
498.418	22.8367
501.793	23.502
505.168	15.8289
508.543	14.46
511.917	0.390381
515.292	0.785156
518.667	0.154541
522.042	0.899658
525.417	3.26733
528.791	7.27564
532.166	18.6296
535.541	22.5227
538.916	19.5361
542.291	23.2427
545.665	21.7153
549.04	23.2602
552.415	16.7346
555.79	15.9141
559.165	15.8606
562.54	6.31714
565.914	20.3535
569.289	10.2942
572.664	17.2766
576.039	27.5784
579.414	35.8933
582.788	37.3359
586.163	51.3848
589.538	70.1709
592.913	83.7678
596.288	97.3916
599.663	100.083
603.037	98.1487
606.412	88.8601
609.787	80.136
613.162	82.323
616.537	67.8308
619.912	55.6977
623.286	43.0813
626.661	30.353
630.036	23.9565
633.411	15.1697
636.786	10.8945
640.16	4.99585
643.535	0.200684
646.91	0.585205
650.285	1.22949
653.66	2.28394
657.034	0.972412
660.409	1.36353
663.784	1.28272
667.159	9.92554
670.534	16.376
673.909	12.2693
677.283	9.16748
680.658	7.80005
684.033	6.64697
687.408	8.75879
690.783	9.21021
694.158	10.4524
697.532	9.97144
700.907	6.65161
704.282	0.442383
707.657	0.394043
711.032	5.48999
714.406	11.1858
717.781	12.2461
721.156	11.7595
724.531	11.6724
727.906	11.0061
731.28	19.8301
734.655	16.1499
738.03	25.4473
741.405	24.366
744.78	24.9104
748.154	21.5266
751.529	14.8166
754.904	10.3987
758.279	2.65454
761.654	2.37134
765.029	4.66162
768.403	2.51807
771.778	6.25781
775.153	9.41065
778.528	21.3672
781.903	23.429
785.278	37.5286
788.652	31.8723
792.027	34.7698
795.402	40.544
798.777	48.0942
802.152	41.5532
805.526	43.8044
808.901	33.7961
812.276	25.0432
815.651	18.6582
819.026	25.4565
822.4	16.9233
825.775	6.77759
829.15	6.68848
832.525	3.41504
835.9	11.041
839.275	6.69507
842.649	5.11914
846.024	11.7996
849.399	7.70019
852.774	10.677
856.149	16.9939
859.524	26.2244
862.898	36.1763
866.273	52.8174
869.648	62.4136
873.023	57.7498
876.398	38.5466
879.773	38.6929
883.147	37.6924
886.522	30.5725
889.897	16.522
893.272	12.6904
896.646	10.0786
900.021	7.04541
903.396	2.2041
906.771	2.4397
910.146	2.00586
913.521	7.35132
916.895	3.02148
920.27	0.549561
923.645	6.28394
927.02	13.2849
930.395	6.83447
933.769	7.15283
937.144	11.907
940.519	16.5696
943.894	32.5381
947.269	34.1711
950.644	53.4243
954.018	72.2158
957.393	87.4663
960.768	91.3599
964.143	76.9944
967.518	61.4417
970.893	49.3135
974.267	38.9365
977.642	49.5129
981.017	35.7625
984.392	34.1736
987.767	23.1509
991.141	24.8303
994.516	26.1453
997.891	13.9373
1001.27	6.51807
1004.64	8.84204
1008.02	10.4304
1011.39	2.80127
1014.76	8.87622
1018.14	4.80176
1021.51	3.49463
1024.89	6.58789
1028.26	10.6086
1031.64	10.7395
1035.01	12.1221
1038.39	11.7127
1041.76	16.2112
1045.14	12.4487
1048.51	11.842
1051.89	6.76318
1055.26	4.89502
1058.64	5.81641
1062.01	9.29712
1065.39	5.36816
1068.76	2.948
1072.14	0.371338
1075.51	3.85938
1078.89	0.051758
1082.26	2.97437
1085.64	1.56836
1089.01	5.38672
1092.39	7.53589
1095.76	0.490234
1099.14	0.482422
1102.51	2.81055
1105.88	0.073242
1109.26	2.96265
1112.63	5.93115
1116.01	10.8569
1119.38	9.34912
1122.76	13.8752
1126.13	45.6797
1129.51	33.9973
1132.88	30.1765
1136.26	22.9973
1139.63	24.562
1143.01	9.04639
1146.38	10.4216
1149.76	20.0212
1153.13	22.1116
1156.51	15.3709
1159.88	19.2559
1163.26	22.8435
1166.63	18.2493
1170.01	19.2676
1173.38	15.3623
1176.76	14.02
1180.13	20.7866
1183.51	15.3008
1186.88	23.9311
1190.26	26.073
1193.63	24.2769
1197.01	24.4416
1200.38	17.1794
1203.76	15.4172
1207.13	16.3936
1210.51	13.0493
1213.88	9.43286
1217.25	12.2068
1220.63	19.5794
1224	12.8259
1227.38	8.61133
1230.75	8.70264
1234.13	0.743652
1237.5	0.362793
1240.88	1.71973
1244.25	4.58618
1247.63	8.95483
1251	11.125
1254.38	12.219
1257.75	15.4229
1261.13	8.56641
1264.5	3.58325
1267.88	10.7346
1271.25	5.28271
1274.63	0.817871
1278	0.99707
1281.38	8.58398
1284.75	8.10547
1288.12	12.6834
1291.5	11.2266
1294.88	0.4104
1298.25	3.72681
