Measurement: Raman, 780 nm, unoriented, Raman Data Processed
Mineral: Munakataite
Rruff sample: R110006
Ideal chemistry: Pb^2+^_2_Cu^2+^_2_(Se^4+^O_3_)S^6+^O_4_(OH)_4_
Locality: Tonopah-Belmont mine, Maricopa County, Arizona, USA
Source: Marcus Origlieri
Description: Jackstraw aggregate of blue bladed crystals
Raman shift (cm-1)	intensity
215.956	0
218.848	1.45827
221.741	1.83446
224.634	3.40607
227.526	3.72963
230.419	3.41705
233.312	0.771883
236.205	4.97968
239.097	6.12219
241.99	2.40421
244.883	3.75883
247.775	2.66518
250.668	1.94962
253.561	1.04406
256.454	0.011944
259.346	3.72707
262.239	2.79856
265.132	1.0847
268.024	1.80787
270.917	3.30399
273.81	1.18134
276.702	5.33968
279.595	2.32697
282.488	1.13936
285.38	0.359486
288.273	2.1979
291.166	3.54227
294.059	0.573717
296.951	1.21938
299.844	1.71727
302.737	0.707895
305.629	2.50196
308.522	1.81568
311.415	5.62542
314.308	5.54715
317.2	4.38552
320.093	3.28895
322.986	7.79659
325.878	13.6281
328.771	15.9193
331.664	16.2682
334.556	16.2172
337.449	18.185
340.342	22.1941
343.234	24.3107
346.127	21.094
349.02	20.3129
351.913	15.5478
354.805	22.6808
357.698	20.3205
360.591	20.2318
363.483	20.5099
366.376	22.2911
369.269	21.9579
372.161	18.6262
375.054	24.8998
377.947	24.5213
380.839	14.8008
383.732	13.7765
386.625	10.1629
389.518	7.80518
392.41	3.79045
395.303	5.3837
398.196	2.87
401.088	3.94745
403.981	1.78809
406.874	1.82445
409.767	1.92395
412.659	0.794605
415.552	0.013136
418.445	2.9293
421.337	6.44259
424.23	7.86923
427.123	11.3234
430.015	9.74338
432.908	15.7245
435.801	19.1454
438.693	22.4215
441.586	9.96841
444.479	4.02418
447.372	7.16587
450.264	12.001
453.157	10.9915
456.05	15.2119
458.942	17.1782
461.835	18.5718
464.728	20.6725
467.62	19.9697
470.513	18.445
473.406	11.1096
476.299	6.50983
479.191	5.31032
482.084	2.47683
484.977	1.24506
487.869	0.730326
490.762	2.67669
493.655	3.73274
496.547	2.32045
499.44	5.68256
502.333	8.6037
505.226	8.62506
508.118	7.79673
511.011	11.4895
513.904	10.2562
516.796	14.1789
519.689	11.8973
522.582	10.2989
525.474	9.44628
528.367	5.75387
531.26	4.71587
534.153	3.60034
537.045	3.58519
539.938	2.85288
542.831	3.51203
545.723	2.06893
548.616	1.17852
551.509	0.12051
554.401	0.012536
557.294	2.94612
560.187	1.8806
563.08	1.76543
565.972	1.02262
568.865	3.55482
571.758	2.72728
574.65	5.37824
577.543	1.99018
580.436	2.20569
583.328	0.486105
586.221	0.707814
589.114	4.35576
592.006	4.09152
594.899	9.84861
597.792	7.21855
600.685	5.9399
603.577	8.2782
606.47	7.84436
609.363	8.32051
612.255	6.20797
615.148	9.72986
618.041	1.92207
620.933	5.55079
623.826	5.69016
626.719	2.06955
629.611	6.22298
632.504	4.24088
635.397	1.20516
638.29	4.78483
641.182	1.18382
644.075	4.67038
646.968	2.74015
649.86	7.92533
652.753	3.22486
655.646	7.00535
658.538	8.42153
661.431	6.56031
664.324	2.97828
667.217	5.92606
670.109	4.02872
673.002	2.19671
675.895	0.235582
678.787	1.40203
681.68	0.343763
684.573	1.56325
687.466	0.353115
690.358	1.41357
693.251	0.519618
696.144	0.882711
699.036	0.323124
701.929	1.24148
704.822	3.91949
707.714	1.37889
710.607	2.36583
713.5	4.6695
716.393	1.74692
719.285	4.15764
722.178	3.3567
725.071	3.85795
727.963	3.51426
730.856	1.61624
733.749	1.06883
736.641	4.6229
739.534	2.10616
742.427	3.62921
745.319	1.17613
748.212	1.18942
751.105	0.517763
753.998	4.70336
756.89	3.49856
759.783	5.05868
762.676	6.32456
765.568	10.6101
768.461	15.2501
771.354	22.7934
774.246	33.3929
777.139	43.7693
780.032	57.9539
782.925	67.7263
785.817	74.7026
788.71	74.8113
791.603	73.7615
794.495	50.3492
797.388	30.838
800.281	19.7243
803.173	11.9792
806.066	6.30975
808.959	5.53758
811.851	2.76678
814.744	2.98773
817.637	3.5619
820.53	7.80879
823.422	3.60931
826.315	4.54665
829.208	2.43009
832.1	3.18174
834.993	0.806339
837.886	1.92906
840.779	3.32167
843.671	4.08903
846.564	2.51274
849.457	0.940414
852.349	0.064673
855.242	1.62086
858.135	2.11874
861.027	0.351186
863.92	3.1775
866.813	2.52199
869.706	0.566182
872.598	1.36061
875.491	0.491737
878.384	1.15855
881.276	3.72474
884.169	3.09058
887.062	4.00471
889.954	1.4229
892.847	1.99704
895.74	0.407094
898.632	4.67143
901.525	2.35578
904.418	0.158431
907.311	0.683022
910.203	4.1726
913.096	4.97629
915.989	2.95257
918.881	3.65516
921.774	3.96176
924.667	0.556026
927.559	7.37205
930.452	2.55896
933.345	3.10646
936.237	3.44217
939.13	4.00989
942.023	4.84667
944.916	7.99277
947.808	13.0843
950.701	23.7018
953.594	35.4304
956.486	39.3567
959.379	49.7908
962.272	59.3017
965.164	67.2814
968.057	51.2271
970.95	26.7954
973.843	12.0187
976.735	8.64278
979.628	7.10827
982.521	3.19955
985.413	3.29942
988.306	1.17105
991.199	3.97754
994.091	0.062839
996.984	2.91682
999.877	1.11959
1002.77	1.21317
1005.66	0.364475
1008.55	0.858326
1011.45	2.53858
1014.34	0.478019
1017.23	2.80204
1020.13	1.19305
1023.02	3.88029
1025.91	2.03548
1028.8	3.01856
1031.7	2.51789
1034.59	5.46494
1037.48	5.42326
1040.38	6.52831
1043.27	3.49151
1046.16	7.10752
1049.05	6.59811
1051.94	5.47752
1054.84	8.00324
1057.73	6.17383
1060.62	7.48895
1063.52	6.16938
1066.41	10.1518
1069.3	6.92489
1072.19	8.7214
1075.09	4.67312
1077.98	9.10913
1080.87	5.48832
1083.77	9.00564
1086.66	3.65665
1089.55	4.60556
1092.44	6.52747
1095.34	3.09183
1098.23	3.25912
1101.12	4.84049
1104.01	4.43721
1106.91	6.15091
1109.8	3.74623
1112.69	2.57698
1115.59	3.51024
1118.48	1.08691
1121.37	0.460696
1124.26	1.38013
1127.16	2.22965
1130.05	1.7668
1132.94	1.8461
1135.83	0.78233
1138.73	0.037376
1141.62	2.95041
1144.51	1.69964
1147.4	0.047295
1150.3	3.04057
1153.19	0.714918
1156.08	1.57623
1158.97	1.48533
1161.87	6.13023
1164.76	3.04187
1167.65	1.74859
1170.55	3.90861
1173.44	1.04475
1176.33	0.288421
1179.22	3.45071
1182.12	1.66822
1185.01	5.55626
1187.9	4.11784
1190.8	4.12783
1193.69	2.20731
1196.58	3.51436
1199.47	2.11915
1202.37	1.59097
1205.26	5.59743
1208.15	1.11677
1211.04	3.9584
1213.94	0.748999
1216.83	3.35061
1219.72	2.63345
1222.62	2.45601
1225.51	3.88749
1228.4	1.51291
1231.29	1.92563
1234.18	3.22238
1237.08	0.903262
1239.97	0.891312
1242.86	3.00743
1245.76	2.51409
1248.65	0.33492
1251.54	4.83204
1254.43	4.69268
1257.33	3.51628
1260.22	1.35216
1263.11	3.50127
1266.01	3.82228
1268.9	1.19555
1271.79	1.16784
1274.68	0.709341
1277.58	2.08255
1280.47	1.86078
1283.36	0.269104
