Measurement: Raman, 780 nm, unoriented, Raman Data Processed
Mineral: Munakataite
Rruff sample: R110005
Ideal chemistry: Pb^2+^_2_Cu^2+^_2_(Se^4+^O_3_)S^6+^O_4_(OH)_4_
Locality: Tonopah-Belmont mine, Maricopa County, Arizona, USA
Source: Marcus Origlieri
Description: Blue acicular to prismatic crystals with tapering terminations, associated with brochantite and cerussite
Raman shift (cm-1)	intensity
174.976	0
177.869	0.416253
180.761	2.70894
183.654	0.509899
186.547	2.14051
189.439	4.80955
192.332	2.72777
195.225	0.831662
198.117	2.54823
201.01	2.33085
203.903	4.54205
206.796	0.270729
209.688	1.07253
212.581	2.97205
215.474	2.95308
218.366	2.95648
221.259	4.08564
224.152	2.28276
227.044	1.67653
229.937	1.16966
232.83	3.43333
235.722	3.11608
238.615	1.72696
241.508	4.9102
244.401	2.97525
247.293	4.4073
250.186	2.53554
253.079	0.997091
255.971	1.28748
258.864	1.68317
261.757	0.95407
264.649	1.59793
267.542	0.211073
270.435	0.149936
273.328	3.62157
276.22	3.00281
279.113	0.116851
282.006	0.339139
284.898	3.88336
287.791	0.036641
290.684	0.286412
293.576	0.478013
296.469	1.18096
299.362	2.96745
302.255	0.436786
305.147	2.15581
308.04	1.25067
310.933	1.27891
313.825	2.11197
316.718	2.26362
319.611	2.34905
322.503	5.23745
325.396	9.20046
328.289	10.6173
331.182	10.7835
334.074	7.05281
336.967	8.57333
339.86	11.9517
342.752	12.1905
345.645	12.2021
348.538	7.58046
351.43	7.01634
354.323	6.80897
357.216	8.25723
360.108	10.2707
363.001	10.2489
365.894	10.0314
368.787	10.363
371.679	8.12813
374.572	11.7142
377.465	12.2052
380.357	9.36051
383.25	8.82631
386.143	6.98938
389.036	2.44481
391.928	0.321633
394.821	1.10562
397.714	1.42022
400.606	2.40408
403.499	0.607433
406.392	0.555134
409.284	0.248582
412.177	0.246261
415.07	0.493324
417.962	2.61448
420.855	4.30278
423.748	4.03252
426.641	5.72859
429.533	8.3133
432.426	8.38223
435.319	9.44106
438.211	12.3848
441.104	10.0337
443.997	6.55221
446.889	3.94213
449.782	7.43702
452.675	8.45967
455.567	14.1106
458.46	16.841
461.353	14.7923
464.246	15.8249
467.138	13.8508
470.031	8.4828
472.924	8.79829
475.816	5.93705
478.709	3.57585
481.602	0.288025
484.495	2.0983
487.387	3.56013
490.28	3.12332
493.173	0.059089
496.065	1.43485
498.958	1.34681
501.851	1.55992
504.743	4.74259
507.636	3.42399
510.529	7.3043
513.422	4.33114
516.314	6.23838
519.207	5.97806
522.1	3.73448
524.992	3.26485
527.885	3.49028
530.778	3.3616
533.67	5.52357
536.563	4.49138
539.456	4.63878
542.348	1.71082
545.241	1.67443
548.134	0.366241
551.027	0.535029
553.919	1.62054
556.812	2.95581
559.705	1.68814
562.597	1.64775
565.49	3.01007
568.383	1.0794
571.275	3.6524
574.168	0.792578
577.061	0.116848
579.954	1.18233
582.846	0.293075
585.739	1.05806
588.632	1.9365
591.524	2.63871
594.417	2.12762
597.31	2.74905
600.202	2.34991
603.095	0.406321
605.988	4.28386
608.881	4.24967
611.773	6.8088
614.666	4.62142
617.559	6.46828
620.451	1.78444
623.344	5.50298
626.237	2.72925
629.129	2.15029
632.022	4.61753
634.915	2.3716
637.808	4.28359
640.7	3.59576
643.593	4.74534
646.486	3.05409
649.378	3.28325
652.271	4.20957
655.164	5.12112
658.056	4.91002
660.949	4.20593
663.842	2.92643
666.735	6.15351
669.627	5.59694
672.52	2.65858
675.413	3.49777
678.305	1.35052
681.198	2.62155
684.091	3.05173
686.983	1.73805
689.876	1.70919
692.769	1.09882
695.662	1.35762
698.554	0.36044
701.447	2.24623
704.34	2.95428
707.232	6.46668
710.125	4.97526
713.018	6.78127
715.91	5.95074
718.803	6.70328
721.696	6.87849
724.588	6.24005
727.481	7.33279
730.374	7.51825
733.266	7.00433
736.159	9.49538
739.052	6.84242
741.945	4.9311
744.837	6.94242
747.73	5.76657
750.623	5.8938
753.515	6.18818
756.408	4.01286
759.301	6.89196
762.193	6.57626
765.086	8.11122
767.979	13.8777
770.872	20.8878
773.764	25.3672
776.657	41.1727
779.55	55.48
782.442	74.8358
785.335	79.6667
788.228	87.0956
791.12	81.4634
794.013	65.2198
796.906	42.188
799.799	26.0228
802.691	12.063
805.584	8.03421
808.477	4.53233
811.369	2.04127
814.262	0.271091
817.155	1.43498
820.048	1.16293
822.94	0.820813
825.833	1.74368
828.726	0.565301
831.618	1.92113
834.511	0.225851
837.404	1.73716
840.296	0.294086
843.189	0.256495
846.082	3.7829
848.975	0.415817
851.867	1.20851
854.76	1.24431
857.653	2.70648
860.545	2.15984
863.438	1.0534
866.331	0.952004
869.223	2.71943
872.116	1.12308
875.009	3.86881
877.901	4.50821
880.794	2.95015
883.687	5.854
886.58	0.8568
889.472	2.78905
892.365	1.76436
895.258	0.89881
898.15	0.538933
901.043	0.908123
903.936	3.04765
906.828	0.383164
909.721	0.32989
912.614	1.34906
915.506	2.78929
918.399	0.321585
921.292	4.9135
924.185	1.35985
927.077	0.748508
929.97	0.057512
932.863	0.672377
935.755	2.41199
938.648	5.57662
941.541	5.74284
944.433	4.97943
947.326	12.9642
950.219	20.0713
953.112	34.987
956.004	47.7507
958.897	63.5722
961.79	67.8864
964.682	68.6056
967.575	56.9037
970.468	35.1417
973.361	17.6821
976.253	8.98494
979.146	7.42011
982.039	2.61273
984.931	0.267874
987.824	3.516
990.717	0.265035
993.609	0.190708
996.502	0.998246
999.395	0.86463
1002.29	0.331338
1005.18	2.82761
1008.07	1.78859
1010.97	2.66096
1013.86	1.69778
1016.75	2.6308
1019.64	3.09236
1022.54	1.12178
1025.43	6.72813
1028.32	3.85664
1031.21	8.64522
1034.11	0.8291
1037	4.5866
1039.89	5.21119
1042.79	4.81081
1045.68	4.94593
1048.57	6.03916
1051.46	3.95055
1054.36	5.94676
1057.25	8.35634
1060.14	8.67459
1063.03	7.65757
1065.93	9.4872
1068.82	10.2156
1071.71	6.43416
1074.61	6.80351
1077.5	6.58185
1080.39	7.78173
1083.28	8.31656
1086.18	7.94006
1089.07	5.57547
1091.96	7.34788
1094.85	5.53368
1097.75	5.55815
1100.64	2.66554
1103.53	5.12112
1106.42	2.8133
1109.32	3.29045
1112.21	0.190938
1115.1	4.11677
1117.99	0.316142
1120.89	0.899102
1123.78	0.23632
1126.67	5.13275
1129.57	4.79209
1132.46	1.10327
1135.35	0.774693
1138.24	1.08295
1141.14	1.15237
1144.03	1.09372
1146.92	2.36614
1149.82	1.30434
1152.71	1.56974
1155.6	2.86013
1158.49	5.76329
1161.39	3.56256
1164.28	0.771455
1167.17	4.71481
1170.06	4.67394
1172.96	4.05236
1175.85	4.56353
1178.74	1.10031
1181.63	1.09597
1184.53	0.535407
1187.42	1.05697
1190.31	4.91036
1193.21	3.4594
1196.1	1.44141
1198.99	3.68734
1201.88	4.5487
1204.78	0.451903
1207.67	4.22337
1210.56	4.21735
1213.45	1.68572
1216.35	1.62331
1219.24	3.41869
1222.13	1.31406
1225.03	4.48578
1227.92	0.145181
1230.81	2.94901
1233.7	4.17373
1236.6	2.19386
1239.49	1.03238
1242.38	4.01662
1245.27	2.0079
1248.17	2.69593
1251.06	4.09277
1253.95	3.43327
1256.85	1.0149
1259.74	2.63255
1262.63	4.54405
1265.52	0.31197
1268.42	5.49087
1271.31	0.620209
1274.2	0.66307
1277.09	1.85409
1279.99	0.79232
1282.88	2.11719
