Measurement: Raman, 532 nm, unoriented, Raman Data Processed
Mineral: Murmanite
Rruff sample: R060886
Ideal chemistry: Na_2_Ti^4+^_2_Na_2_Ti^4+^_2_(Si_2_O_7_)_2_O_4_(H_2_O)_4_
Locality: Lovozero Massif, Kola Peninsula, Russia
Source: Bob Jenkins
Description: Lilac lamellar aggregate
Raman shift (cm-1)	intensity
180.341	0
183.234	0.938232
186.127	47.3652
189.019	65.0098
191.912	71.6977
194.805	64.2529
197.697	63.675
200.59	79.6365
203.483	114.18
206.375	155.546
209.268	130.203
212.161	148.522
215.054	129.088
217.946	160.798
220.839	126.072
223.732	78.8303
226.624	48.8745
229.517	104.763
232.41	60.8989
235.303	32.0813
238.195	11.5212
241.088	29.3547
243.981	6.28638
246.873	39.4902
249.766	42.5227
252.659	6.26953
255.551	2.87573
258.444	42.9514
261.337	74.5476
264.229	59.7451
267.122	88.6021
270.015	61.9036
272.908	79.2991
275.8	129.092
278.693	74.3477
281.586	102.968
284.478	91.7913
287.371	76.8081
290.264	88.4487
293.156	48.6621
296.049	106.799
298.942	48.2573
301.834	83.5203
304.727	162.084
307.62	116.692
310.513	125.472
313.405	108.284
316.298	141.589
319.191	118.98
322.083	107.436
324.976	161.837
327.869	181.924
330.762	209.95
333.654	195.296
336.547	159.527
339.44	126.894
342.332	156.202
345.225	132.48
348.118	136.635
351.01	137.869
353.903	88.5896
356.796	68.792
359.688	33.9692
362.581	66.0796
365.474	24.5442
368.366	14.6377
371.259	3.28833
374.152	11.5229
377.045	31.356
379.937	16.0339
382.83	24.5056
385.723	97.6987
388.615	55.0461
391.508	54.9734
394.401	78.6675
397.293	69.6045
400.186	69.0442
403.079	40.0652
405.972	78.1128
408.864	102.54
411.757	106.926
414.65	132.362
417.542	105.579
420.435	128.54
423.328	144.832
426.221	115.926
429.113	86.7773
432.006	115.106
434.899	90.1589
437.791	126.199
440.684	77.7998
443.577	100.038
446.469	102.716
449.362	107.481
452.255	102.403
455.147	126.785
458.04	62.7278
460.933	35.0623
463.826	9.57861
466.718	72.0757
469.611	13.9695
472.504	8.71509
475.396	42.9917
478.289	3.27222
481.182	12.2048
484.074	28.678
486.967	26.9939
489.86	22.8928
492.752	6.62988
495.645	34.1843
498.538	13.3894
501.431	6.62207
504.323	14.781
507.216	22.5049
510.109	17.3887
513.001	29.9321
515.894	15.6855
518.787	60.4951
521.679	100.634
524.572	60.3088
527.465	106.501
530.358	124.295
533.25	130.962
536.143	131.58
539.036	226.338
541.928	241.302
544.821	308.291
547.714	331.132
550.606	344.344
553.499	403.43
556.392	507.04
559.284	506.391
562.177	524.438
565.07	561.71
567.963	583.237
570.855	650.475
573.748	691.1
576.641	685.439
579.533	642.893
582.426	656.946
585.319	675.133
588.212	623.409
591.104	608.874
593.997	496.674
596.89	465.425
599.782	393.946
602.675	324.113
605.568	302.318
608.46	266.513
611.353	212.639
614.246	164.549
617.139	105.466
620.031	71.3765
622.924	46.304
625.817	17.2866
628.709	27.4246
631.602	10.1526
634.495	56.5906
637.387	16.8948
640.28	0.042725
643.173	3.03906
646.066	8.61426
648.958	43.3665
651.851	79.6938
654.744	119.455
657.636	127.624
660.529	124.148
663.422	196.247
666.314	215.239
669.207	228.214
672.1	298.963
674.992	324.498
677.885	312.17
680.778	393.291
683.67	431.179
686.563	402.019
689.456	434.631
692.349	461.815
695.241	472.624
698.134	489.299
701.027	455.119
703.919	466.379
706.812	457.582
709.705	471.021
712.597	465.309
715.49	487.627
718.383	498.13
721.276	435.097
724.168	491.53
727.061	432.269
729.954	440.981
732.846	414.541
735.739	376.787
738.632	343.017
741.524	323.585
744.417	290.873
747.31	304.004
750.203	244.55
753.095	208.519
755.988	219.717
758.881	233.441
761.773	193.18
764.666	183.284
767.559	200.518
770.452	209.403
773.344	168.331
776.237	123.844
779.13	135.121
782.022	145.208
784.915	114.42
787.808	122.578
790.7	52.8274
793.593	75.7905
796.486	50.2122
799.378	25.4348
802.271	57.6773
805.164	7.27759
808.057	12.429
810.949	14.3591
813.842	28.9231
816.735	21.4954
819.627	22.1194
822.52	18.6855
825.413	16.7617
828.305	52.0879
831.198	26.3135
834.091	20.6943
836.984	7.52515
839.876	22.2895
842.769	23.8267
845.662	87.1528
848.554	118.394
851.447	123.445
854.34	173.519
857.232	236.651
860.125	273.872
863.018	254.973
865.91	333.795
868.803	349.923
871.696	333.125
874.589	344.029
877.481	387.95
880.374	426.15
883.267	471.277
886.159	529.798
889.052	541.673
891.945	603.979
894.837	690.035
897.73	766.345
900.623	754.59
903.516	803.79
906.408	906.492
909.301	954.882
912.194	993.585
915.086	1026.92
917.979	1092.55
920.872	1091.25
923.764	1124.29
926.657	1161.24
929.55	1196.73
932.442	1233.79
935.335	1147.43
938.228	1168.63
941.121	1129.72
944.013	1000.72
946.906	972.771
949.799	886.262
952.691	805.188
955.584	733.105
958.477	667.286
961.37	569.79
964.262	488.851
967.155	393.637
970.048	310.559
972.94	300.502
975.833	233.434
978.726	169.676
981.618	195.056
984.511	164.379
987.404	65.3162
990.296	83.5374
993.189	38.6965
996.082	26.6013
998.975	3.13525
1001.87	16.7063
1004.76	17.5542
1007.65	30.0154
1010.54	37.9192
1013.44	8.45996
1016.33	34.231
1019.22	1.75391
1022.12	31.1326
1025.01	27.3821
1027.9	44.0359
1030.79	16.7068
1033.69	13.4673
1036.58	21.4163
1039.47	6.72583
1042.37	48.4248
1045.26	58.5371
1048.15	26.1174
1051.04	20.3543
1053.94	27.5383
1056.83	76.3044
1059.72	38.405
1062.61	17.8948
1065.51	61.4043
1068.4	52.9434
1071.29	25.8227
1074.18	62.8101
1077.08	35.0591
1079.97	32.0095
1082.86	85.1326
1085.76	50.4216
1088.65	63.5488
1091.54	80.585
1094.43	78.8938
1097.33	75.7766
1100.22	88.5024
1103.11	108.137
1106	90.115
1108.9	95.8596
1111.79	93.2727
1114.68	50.834
1117.58	86.0637
1120.47	57.5676
1123.36	76.9746
1126.25	65.842
1129.15	74.9233
1132.04	75.9419
1134.93	52.6523
1137.82	47.3789
1140.72	64.6646
1143.61	58.4026
1146.5	3.68848
1149.39	20.8125
1152.29	10.6252
1155.18	48.7439
1158.07	33.5293
1160.97	56.7405
1163.86	28.5942
1166.75	2.29785
1169.64	89.3887
1172.54	34.2895
1175.43	52.4141
1178.32	4.1001
1181.21	61.9277
1184.11	34.9563
1187	106.877
1189.89	78.3193
1192.79	15.2707
1195.68	20.5125
1198.57	15.0073
1201.46	63.752
1204.36	43.1457
1207.25	61.5444
1210.14	76.2498
1213.03	72.8823
1215.93	63.0974
1218.82	53.3533
1221.71	58.2249
1224.61	39.158
1227.5	44.6128
1230.39	100.572
1233.28	60.8023
1236.18	58.7908
1239.07	52.6516
1241.96	66.4243
1244.85	61.6167
1247.75	73.572
1250.64	64.4392
1253.53	23.2539
1256.42	38.4954
1259.32	26.4609
1262.21	4.91479
1265.1	14.5742
1267.99	12.5938
1270.89	69.4377
1273.78	70.3738
1276.67	51.3372
1279.57	10.5298
1282.46	23.4758
1285.35	10.5537
