Measurement: Raman, 785 nm, unoriented, Raman Data Processed
Mineral: Murmanite
Rruff sample: R060886
Ideal chemistry: Na_2_Ti^4+^_2_Na_2_Ti^4+^_2_(Si_2_O_7_)_2_O_4_(H_2_O)_4_
Locality: Lovozero Massif, Kola Peninsula, Russia
Source: Bob Jenkins
Description: Lilac lamellar aggregate
Raman shift (cm-1)	intensity
191.917	0
194.81	9.60449
197.702	58.75
200.595	145.3
203.488	167.845
206.381	153.836
209.273	91.3872
212.166	26.4302
215.059	77.3838
217.951	144.345
220.844	164.31
223.737	107.53
226.63	45.0459
229.522	69.9282
232.415	26.2871
235.308	8.64893
238.2	17.977
241.093	2.19922
243.986	15.3813
246.878	3.88916
249.771	5.76709
252.664	27.0005
255.556	143.789
258.449	160.634
261.342	143.87
264.235	160.575
267.127	132.237
270.02	160.448
272.913	202.991
275.805	202.507
278.698	308.827
281.591	308.4
284.483	313.896
287.376	314.709
290.269	298.777
293.161	253.565
296.054	220.655
298.947	272.536
301.84	304.241
304.732	281.126
307.625	298.36
310.518	303.985
313.41	289.094
316.303	247.827
319.196	204.08
322.089	214.064
324.981	238.143
327.874	272.969
330.767	332.227
333.659	282.447
336.552	266.132
339.445	274.102
342.337	234.707
345.23	246.325
348.123	260.437
351.015	221.927
353.908	226.748
356.801	164.318
359.694	128.915
362.586	92.0664
365.479	86.6352
368.372	118.183
371.264	99.3682
374.157	126.945
377.05	52.2866
379.942	95.5137
382.835	47.9092
385.728	5.67139
388.621	6.25146
391.513	23.145
394.406	7.27051
397.299	42.854
400.191	8.9458
403.084	12.0947
405.977	50.4463
408.87	4.94092
411.762	36.3418
414.655	49.0405
417.548	61.3711
420.44	32.5435
423.333	38.5659
426.226	59.7134
429.118	8.47607
432.011	33.5322
434.904	16.6289
437.796	50.8389
440.689	79.3662
443.582	143.659
446.475	147.113
449.367	74.0068
452.26	156.765
455.153	64.7651
458.045	37.3589
460.938	84.1763
463.831	52.6006
466.724	78.5142
469.616	86.6577
472.509	42.1065
475.402	7.94678
478.294	20.709
481.187	51.1694
484.08	16.8242
486.972	7.22266
489.865	51.8755
492.758	44.9062
495.651	57.416
498.543	58.4326
501.436	33.2593
504.329	17.2436
507.221	94.1055
510.114	72.5527
513.007	137.378
515.899	150.011
518.792	200.864
521.685	210.744
524.577	296.972
527.47	326.451
530.363	300.368
533.256	269.848
536.148	347.593
539.041	426.491
541.934	469.759
544.826	429.593
547.719	464.734
550.612	449.231
553.505	508.45
556.397	527.312
559.29	520.409
562.183	564.993
565.075	575.842
567.968	573.527
570.861	572.414
573.753	587.326
576.646	578.83
579.539	582.962
582.431	606.347
585.324	580.883
588.217	564.255
591.11	503.639
594.002	438.57
596.895	373.301
599.788	359.286
602.68	358.661
605.573	250.96
608.466	225.329
611.358	145.753
614.251	91.6436
617.144	92.2852
620.037	1.29492
622.929	39.7285
625.822	6.27588
628.715	9.01172
631.607	34.0708
634.5	15.4062
637.393	30.1577
640.285	19.2324
643.178	47.2764
646.071	20.4956
648.963	23.8579
651.856	13.208
654.749	78.7593
657.642	140.291
660.534	119.701
663.427	153.353
666.32	125.165
669.212	170.249
672.105	220.04
674.998	216.626
677.89	271.009
680.783	237.66
683.676	247.721
686.569	257.525
689.461	256.862
692.354	302.751
695.247	279.822
698.139	279.959
701.032	286.563
703.925	324.83
706.817	301.26
709.71	287.747
712.603	262.724
715.496	297.298
718.388	302.536
721.281	282.965
724.174	304.627
727.066	250.762
729.959	231.436
732.852	182.573
735.744	195.918
738.637	220.094
741.53	214.757
744.423	152.941
747.315	185.72
750.208	154.13
753.101	129.99
755.993	105.677
758.886	66.8394
761.779	107.889
764.671	77.8486
767.564	43.6167
770.457	98.8227
773.35	87.3726
776.242	93.0586
779.135	117.844
782.028	82.0977
784.92	112.853
787.813	136.272
790.706	130.708
793.598	111.369
796.491	61.7734
799.384	85.2842
802.277	55.2695
805.169	40.2747
808.062	56.9875
810.955	5.96362
813.847	99.1025
816.74	47.9199
819.633	39.3892
822.525	26.2082
825.418	11.2185
828.311	20.4004
831.204	9.48218
834.096	29.1069
836.989	19.5334
839.882	26.4966
842.774	16.7478
845.667	26.5305
848.56	9.30078
851.452	13.5754
854.345	52.8108
857.238	48.707
860.131	58.4417
863.023	104.437
865.916	48.0947
868.809	115.122
871.701	104.606
874.594	114.817
877.487	143.408
880.379	131.149
883.272	152.045
886.165	192.001
889.058	219.173
891.95	270.025
894.843	326.856
897.736	296.79
900.628	419.378
903.521	439.691
906.414	553.163
909.306	605.736
912.199	690.087
915.092	656.117
917.985	746.041
920.877	825.856
923.77	877.148
926.663	917.595
929.555	924.859
932.448	1025.01
935.341	1017.67
938.233	976.441
941.126	989.493
944.019	958.864
946.912	878.395
949.804	856.11
952.697	785.203
955.59	710.641
958.482	652.811
961.375	557.024
964.268	493.4
967.16	415.783
970.053	342.413
972.946	269.978
975.838	248.965
978.731	182.775
981.624	127.591
984.517	174.089
987.409	57.2798
990.302	40.3845
993.195	0.766357
996.087	52.6108
998.98	55.0027
1001.87	32.5759
1004.77	43.9888
1007.66	65.3018
1010.55	34.6143
1013.44	41.2827
1016.34	26.0759
1019.23	2.68872
1022.12	9.71802
1025.01	14.1697
1027.91	13.5979
1030.8	44.1514
1033.69	5.91577
1036.59	5.35352
1039.48	10.635
1042.37	15.6533
1045.26	8.80933
1048.16	36.6257
1051.05	2.08643
1053.94	50.6118
1056.83	2.07935
1059.73	26.2556
1062.62	18.5911
1065.51	33.511
1068.4	37.4846
1071.3	60.3215
1074.19	77.8101
1077.08	80.9729
1079.98	92.8403
1082.87	131.071
1085.76	134.482
1088.65	135.389
1091.55	103.505
1094.44	127.938
1097.33	149.994
1100.22	148.799
1103.12	132.925
1106.01	125.056
1108.9	109.385
1111.8	154.878
1114.69	149.114
1117.58	113.226
1120.47	161.567
1123.37	74.4658
1126.26	112.677
1129.15	77.2249
1132.04	84.9775
1134.94	100.971
1137.83	98.5137
1140.72	39.471
1143.62	41.9477
1146.51	77.1445
1149.4	76.8979
1152.29	44.977
1155.19	39.2524
1158.08	48.7307
1160.97	25.5713
1163.86	43.2986
1166.76	1.04907
1169.65	31.8711
1172.54	40.47
1175.43	7.19043
1178.33	5.95508
1181.22	1.73267
1184.11	9.41138
1187.01	29.7893
1189.9	39.187
1192.79	45.658
1195.68	13.3892
1198.58	47.3945
1201.47	119.575
1204.36	5.21411
1207.25	12.3967
1210.15	55.9006
1213.04	25.8218
1215.93	64.4819
1218.83	63.8806
1221.72	42.739
1224.61	83.5132
1227.5	94.488
1230.4	87.6206
1233.29	28.1753
1236.18	28.7102
1239.07	17.0588
1241.97	56.3589
1244.86	41.2676
1247.75	61.1335
1250.64	60.6848
1253.54	20.1511
1256.43	43.856
1259.32	30.2031
1262.22	7.01416
