Measurement: Raman, 532 nm, unoriented, Raman Data Processed
Mineral: Muscovite
Rruff sample: R060266
Ideal chemistry: KAl_2_(Si_3_Al)O_10_(OH)_2_
Locality: Bolet, Vasterbotten, Sweden
Source: Michael Scott
Description: Pink earthy massive
Measured chemistry: (K_0.26_Ca_0.16_Mn_0.05_Na_0.01_)_Σ=0.48_(Al_3.14_Mg_1.75_Fe^3+^_0.11_)_Σ=5_(Si_6.06_Al_1.94_)_Σ=8_O_20_(OH)_4_·3.5H_2_O; H_2_O estimated by difference; (OH) by charge balance
Raman shift (cm-1)	intensity
172.452	0
175.345	0.286133
178.237	2.40649
181.13	21.2993
184.023	18.6062
186.916	43.7563
189.808	74.2305
192.701	81.8101
195.594	87.8738
198.486	99.0271
201.379	106.423
204.272	107.942
207.164	124.77
210.057	96.1404
212.95	102.409
215.843	83.5286
218.735	62.5881
221.628	52.127
224.521	43.8599
227.413	34.7859
230.306	23.5027
233.199	28.824
236.091	23.0315
238.984	5.19409
241.877	5.96411
244.769	20.7522
247.662	11.2681
250.555	27.614
253.448	42.0046
256.34	70.8481
259.233	79.6633
262.126	96.6072
265.018	92.8071
267.911	88.095
270.804	68.417
273.697	33.2815
276.589	30.1301
279.482	34.5649
282.375	36.1409
285.267	31.9111
288.16	23.5354
291.053	18.8586
293.945	16.2559
296.838	7.68872
299.731	3.17554
302.623	4.33887
305.516	1.92358
308.409	2.8833
311.302	5.18872
314.194	7.30859
317.087	3.4707
319.98	2.54907
322.872	9.7644
325.765	1.26685
328.658	10.5701
331.55	5.84351
334.443	15.846
337.336	7.97705
340.229	9.05322
343.121	4.95264
346.014	11.6538
348.907	2.52393
351.799	12.2947
354.692	19.7922
357.585	22.4526
360.478	28.4382
363.37	39.1204
366.263	27.5083
369.156	18.7163
372.048	15.2307
374.941	29.6125
377.834	29.6396
380.726	21.5666
383.619	18.4917
386.512	25.855
389.404	43.4399
392.297	28.5557
395.19	33.0855
398.083	38.3931
400.975	54.4373
403.868	59.4441
406.761	66.8196
409.653	79.4631
412.546	74.0417
415.439	81.5644
418.332	77.2451
421.224	58.1318
424.117	54.5281
427.01	52.0598
429.902	51.0317
432.795	57.2883
435.688	60.1228
438.58	49.8555
441.473	40.6208
444.366	31.8467
447.259	24.6706
450.151	23.0393
453.044	20.0513
455.937	17.7297
458.829	22.0269
461.722	16.5447
464.615	19.0593
467.507	15.4641
470.4	6.18115
473.293	8.44995
476.185	0.296875
479.078	5.71924
481.971	3.25073
484.864	6.07837
487.756	4.47021
490.649	13.9753
493.542	6.78638
496.434	10.1897
499.327	9.24048
502.22	0.390381
505.113	2.32617
508.005	7.1084
510.898	3.34684
513.791	5.65064
516.683	3.66309
519.576	4.97412
522.469	1.2019
525.361	10.407
528.254	21.0286
531.147	11.7981
534.04	20.2056
536.932	21.6941
539.825	24.0083
542.718	32.6848
545.61	27.977
548.503	34.4507
551.396	50.5613
554.288	56.0645
557.181	64.9482
560.074	73.52
562.967	80.8162
565.859	73.8481
568.752	66.0869
571.645	54.7634
574.537	36.2085
577.43	20.2629
580.323	16.1316
583.216	11.8914
586.108	27.333
589.001	26.0222
591.894	28.094
594.786	30.228
597.679	24.9004
600.572	28.6824
603.464	15.4563
606.357	14.0073
609.25	29.7307
612.142	37.4665
615.035	24.8833
617.928	21.0698
620.821	11.23
623.713	13.9939
626.606	14.5376
629.499	3.45606
632.391	16.769
635.284	21.8709
638.177	8.47095
641.069	3.88477
643.962	6.54346
646.855	8.20068
649.747	8.28735
652.64	6.45435
655.533	8.30151
658.426	14.4258
661.318	19.8105
664.211	10.1721
667.104	5.45825
669.996	22.6148
672.889	19.9282
675.782	32.1008
678.674	33.9202
681.567	47.7502
684.46	59.2681
687.353	56.9477
690.245	77.2778
693.138	84.0554
696.031	92.4031
698.923	137.558
701.816	138.122
704.709	150.917
707.601	150.065
710.494	148.384
713.387	118.758
716.28	71.45
719.172	53.6848
722.065	35.2288
724.958	39.4441
727.85	27.6902
730.743	14.0745
733.636	16.2263
736.529	11.3538
739.421	20.7815
742.314	3.91577
745.207	14.7512
748.099	21.5964
750.992	7.99097
753.885	16.4458
756.777	9.59106
759.67	16.145
762.563	12.2354
765.456	10.813
768.348	10.5852
771.241	4.11377
774.134	9.19873
777.026	8.99365
779.919	25.4685
782.812	3.79956
785.704	9.52002
788.597	18.7571
791.49	27.5242
794.383	27.9793
797.275	10.7151
800.168	4.56714
803.061	11.3313
805.953	7.40845
808.846	2.30474
811.739	2.42407
814.631	4.927
817.524	3.61572
820.417	5.67407
823.309	9.39429
826.202	7.00757
829.095	7.6355
831.988	24.5972
834.88	4.78955
837.773	17.8845
840.666	26.1216
843.558	33.2576
846.451	46.6709
849.344	47.7527
852.236	28.3147
855.129	22.8901
858.022	14.4785
860.915	8.54102
863.807	12.2019
866.7	5.43945
869.593	7.2124
872.485	5.37207
875.378	5.97559
878.271	4.49658
881.163	16.1848
884.056	6.10693
886.949	5.21314
889.842	9.73999
892.734	14.1372
895.627	16.9863
898.52	27.168
901.412	27.011
904.305	18.283
907.198	32.147
910.091	29.6992
912.983	35.8618
915.876	19.2385
918.769	30.458
921.661	26.2622
924.554	23.3762
927.447	30.6836
930.339	22.0708
933.232	13.5149
936.125	2.14429
939.018	19.0581
941.91	17.0112
944.803	16.0422
947.696	23.4985
950.588	22.7048
953.481	34.8748
956.374	27.0745
959.266	4.24829
962.159	9.23535
965.052	3.24219
967.944	1.51685
970.837	4.65332
973.73	20.1724
976.623	11.6394
979.515	18.0732
982.408	20.5796
985.301	24.2864
988.193	41.5691
991.086	20.1909
993.979	13.2373
996.871	5.15308
999.764	0.675293
1002.66	17.3296
1005.55	17.1438
1008.44	24.8691
1011.34	24.7039
1014.23	38.9434
1017.12	18.6465
1020.01	36.1982
1022.91	16.6316
1025.8	10.4492
1028.69	21.2564
1031.58	12.7165
1034.48	15.0217
1037.37	8.92676
1040.26	0.31958
1043.15	0.085205
1046.05	2.97339
1048.94	9.52197
1051.83	0.75
1054.73	17.3069
1057.62	10.428
1060.51	12.5366
1063.4	12.2012
1066.3	9.86523
1069.19	3.26123
1072.08	14.5793
1074.97	23.1787
1077.87	26.4617
1080.76	29.7566
1083.65	21.5872
1086.55	26.7637
1089.44	20.3088
1092.33	31.1765
1095.22	38.3635
1098.12	28.9971
1101.01	35.7219
1103.9	31.9629
1106.79	32.1262
1109.69	29.2473
1112.58	45.1418
1115.47	30.0007
1118.37	36.6208
1121.26	39.5024
1124.15	24.7615
1127.04	20.3066
1129.94	24.7671
1132.83	10.4209
1135.72	21.0249
1138.61	22.832
1141.51	4.10938
1144.4	2.89136
1147.29	9.74316
1150.18	20.4206
1153.08	18.8581
1155.97	17.2588
1158.86	4.34058
1161.76	5.0542
1164.65	11.0686
1167.54	10.8169
1170.43	13.9895
1173.33	15.4519
1176.22	9.86694
1179.11	6.91089
1182	3.47217
1184.9	18.2754
1187.79	7.52295
1190.68	4.13769
1193.58	17.3875
1196.47	2.81824
1199.36	16.7178
1202.25	12.9978
1205.15	10.626
1208.04	3.3645
1210.93	14.0059
1213.82	18.231
1216.72	17.9717
1219.61	4.96875
1222.5	8.83643
1225.39	12.7571
1228.29	9.0896
1231.18	9.36509
1234.07	14.6919
1236.97	16.6992
1239.86	1.56641
1242.75	11.625
1245.64	6.27515
1248.54	12.646
1251.43	23.5513
1254.32	20.7961
1257.21	0.843506
1260.11	12.2102
1263	9.85254
1265.89	9.33276
1268.79	19.2107
1271.68	12.9832
1274.57	7.65894
1277.46	6.87891
1280.36	0.22168
1283.25	11.3552
1286.14	1.87866
1289.03	0.671387
1291.93	7.53125
1294.82	12.8398
1297.71	8.75659
1300.61	16.4221
