Measurement: Raman, 780 nm, unoriented, Raman Data Processed
Mineral: Muscovite
Rruff sample: R060266
Ideal chemistry: KAl_2_(Si_3_Al)O_10_(OH)_2_
Locality: Bolet, Vasterbotten, Sweden
Source: Michael Scott
Description: Pink earthy massive
Measured chemistry: (K_0.26_Ca_0.16_Mn_0.05_Na_0.01_)_Σ=0.48_(Al_3.14_Mg_1.75_Fe^3+^_0.11_)_Σ=5_(Si_6.06_Al_1.94_)_Σ=8_O_20_(OH)_4_·3.5H_2_O; H_2_O estimated by difference; (OH) by charge balance
Raman shift (cm-1)	intensity
138.781	0
141.673	0.768066
144.566	0.37439
147.459	9.12231
150.351	12.0355
153.244	6.78381
156.137	10.2493
159.03	11.5219
161.922	11.3497
164.815	17.2914
167.708	10.1719
170.6	1.51623
173.493	4.08557
176.386	5.36841
179.278	7.44482
182.171	4.43005
185.064	9.24841
187.957	0.921265
190.849	11.0017
193.742	26.0858
196.635	19.9171
199.527	16.149
202.42	19.1541
205.313	28.6493
208.205	31.0914
211.098	17.3005
213.991	24.2904
216.884	14.5568
219.776	10.9609
222.669	13.1934
225.562	4.70239
228.454	8.46875
231.347	5.81287
234.24	3.11841
237.132	15.9645
240.025	2.10803
242.918	0.42041
245.811	13.028
248.703	9.95117
251.596	12.6337
254.489	15.8268
257.381	21.9266
260.274	33.1185
263.167	40.8351
266.059	28.7512
268.952	21.3451
271.845	26.0923
274.738	12.1031
277.63	23.4737
280.523	13.1743
283.416	14.0161
286.308	10.2839
289.201	8.35608
292.094	3.82129
294.986	6.63757
297.879	4.28125
300.772	5.11316
303.665	0.001465
306.557	4.36279
309.45	5.71997
312.343	0.416504
315.235	5.82837
318.128	5.05176
321.021	3.70618
323.913	3.51245
326.806	4.65686
329.699	14.6822
332.592	4.67725
335.484	3.20642
338.377	4.05725
341.27	1.6217
344.162	1.04224
347.055	2.11145
349.948	0.325073
352.841	1.97961
355.733	8.75635
358.626	0.078491
361.519	4.23828
364.411	8.13232
367.304	12.145
370.197	9.39185
373.089	6.68982
375.982	16.1844
378.875	7.65955
381.767	14.7059
384.66	4.18201
387.553	17.1332
390.446	20.712
393.338	10.6974
396.231	13.9618
399.124	16.6572
402.016	21.9795
404.909	26.996
407.802	31.356
410.695	32.5703
413.587	29.5638
416.48	35.5447
419.373	30.1364
422.265	29.3133
425.158	31.218
428.051	29.8732
430.943	34.0007
433.836	36.6073
436.729	29.9618
439.622	29.5228
442.514	21.803
445.407	25.9853
448.3	21.4535
451.192	22.4467
454.085	22.7765
456.978	17.9952
459.87	24.6525
462.763	13.2918
465.656	19.8461
468.548	21.0897
471.441	15.5977
474.334	18.2944
477.227	9.46362
480.119	8.97241
483.012	10.6058
485.905	5.97675
488.797	11.2358
491.69	7.68475
494.583	1.11645
497.476	10.0977
500.368	2.77356
503.261	0.212341
506.154	6.96472
509.046	5.20746
511.939	4.36517
514.832	2.19476
517.724	0.850464
520.617	8.14374
523.51	3.67151
526.403	3.67505
529.295	3.42755
532.188	4.08508
535.081	7.93927
537.973	15.1733
540.866	3.34735
543.759	15.0448
546.651	21.0834
549.544	25.1324
552.437	32.9884
555.33	23.6981
558.222	23.9652
561.115	27.5661
564.008	22.9468
566.9	19.8026
569.793	19.1115
572.686	15.4002
575.578	18.2856
578.471	9.32538
581.364	6.00769
584.256	0.755432
587.149	7.66772
590.042	4.33734
592.935	12.9734
595.827	5.66156
598.72	7.47266
601.613	5.83814
604.505	2.9057
607.398	9.52093
610.291	6.25537
613.183	6.95483
616.076	8.59369
618.969	7.26215
621.862	3.66339
624.754	12.5797
627.647	2.16522
630.54	3.76099
633.432	7.0257
636.325	10.2261
639.218	11.3699
642.111	7.18127
645.003	4.67047
647.896	4.55646
650.789	1.33551
653.681	0.044067
656.574	8.2514
659.467	7.5351
662.359	4.35681
665.252	0.672729
668.145	7.81885
671.038	2.633
673.93	7.31714
676.823	9.5484
679.716	14.9203
682.608	14.0168
685.501	11.6892
688.394	14.5257
691.286	14.9371
694.179	16.2845
697.072	23.225
699.965	29.8846
702.857	34.365
705.75	38.146
708.643	35.0572
711.535	33.0916
714.428	19.2717
717.321	12.4281
720.213	13.6917
723.106	3.09082
725.999	3.5033
728.891	3.11829
731.784	10.2452
734.677	2.05597
737.57	5.95026
740.462	1.51453
743.355	1.34479
746.248	4.47034
749.14	6.97607
752.033	2.39478
754.926	5.54657
757.818	1.92804
760.711	1.80969
763.604	4.83649
766.497	14.5165
769.389	4.96722
772.282	0.63147
775.175	3.94202
778.067	10.6753
780.96	7.12665
783.853	6.69653
786.745	8.40356
789.638	13.8577
792.531	12.0433
795.424	10.0508
798.316	7.46057
801.209	6.67102
804.102	1.62237
806.994	8.5672
809.887	4.63678
812.78	0.970703
815.673	6.52844
818.565	9.62311
821.458	7.55328
824.351	8.8504
827.243	7.69281
830.136	0.703064
833.029	4.0683
835.921	11.587
838.814	9.9245
841.707	14.1664
844.6	18.1895
847.492	13.4598
850.385	10.6472
853.278	11.7638
856.17	13.6381
859.063	11.8602
861.956	2.93005
864.848	2.88165
867.741	1.66785
870.634	4.04651
873.527	5.66162
876.419	1.02057
879.312	10.6132
882.205	5.66461
885.097	6.61383
887.99	2.91943
890.883	5.47089
893.775	6.38055
896.668	0.552856
899.561	1.6756
902.454	5.26819
905.346	3.13196
908.239	0.008728
911.132	2.7901
914.024	2.22998
916.917	5.00391
919.81	12.6031
922.702	12.9948
925.595	8.16724
928.488	9.30884
931.381	10.3502
934.273	21.0726
937.166	13.2325
940.059	7.80109
942.951	2.89703
945.844	9.16711
948.737	14.1775
951.63	5.69269
954.522	5.27759
957.415	6.33624
960.308	3.62946
963.2	2.71796
966.093	11.9274
968.986	2.3418
971.878	2.75153
974.771	3.91376
977.664	2.66888
980.557	1.52808
983.449	8.8479
986.342	3.79169
989.235	3.11249
992.127	9.25079
995.02	9.71393
997.913	2.89856
1000.8	3.43701
1003.7	4.51184
1006.59	3.54449
1009.48	1.48248
1012.38	5.31464
1015.27	1.98285
1018.16	4.45917
1021.05	1.74707
1023.95	3.3335
1026.84	4.95868
1029.73	1.76856
1032.62	4.26605
1035.52	4.80017
1038.41	7.01526
1041.3	3.48566
1044.2	8.5307
1047.09	1.61371
1049.98	9.68628
1052.87	3.73004
1055.77	4.90631
1058.66	1.04102
1061.55	3.93219
1064.44	12.4095
1067.34	8.85907
1070.23	8.01977
1073.12	12.4854
1076.02	17.4606
1078.91	11.6168
1081.8	13.191
1084.69	17.5745
1087.59	15.1386
1090.48	14.6582
1093.37	20.1877
1096.27	15.7598
1099.16	14.5364
1102.05	21.0038
1104.94	20.9624
1107.84	18.8014
1110.73	13.0821
1113.62	11.3552
1116.51	12.8634
1119.41	12.9528
1122.3	9.94989
1125.19	11.7329
1128.08	2.76172
1130.98	2.74585
1133.87	3.47473
1136.76	5.58685
1139.65	5.52295
1142.55	1.10651
1145.44	1.82391
1148.33	4.9682
1151.23	8.63177
1154.12	3.44421
1157.01	12.5041
1159.9	5.35187
1162.8	7.92645
1165.69	1.09326
1168.58	0.57196
1171.47	8.70087
1174.37	5.45947
1177.26	3.37262
1180.15	14.6106
1183.05	10.6988
1185.94	8.88007
1188.83	1.96735
1191.72	3.81531
1194.62	14.3415
1197.51	10.266
1200.4	10.0136
1203.29	4.37402
1206.19	1.76727
1209.08	10.6334
1211.97	3.81213
1214.87	13.2673
1217.76	9.73767
1220.65	12.6333
1223.54	7.43243
1226.44	10.2419
1229.33	7.14642
1232.22	11.4527
1235.11	14.749
1238.01	10.3283
1240.9	9.60113
1243.79	8.94232
1246.68	10.3769
1249.58	9.37054
1252.47	4.34515
1255.36	8.44812
1258.26	3.39966
1261.15	6.34338
1264.04	8.70734
1266.93	7.93878
1269.83	8.38593
1272.72	8.94141
1275.61	8.19482
1278.51	6.03735
1281.4	3.32446
1284.29	5.03217
