Measurement: Raman, 780 nm, unoriented, Raman Data Processed
Mineral: Nacrite
Rruff sample: R100066
Ideal chemistry: Al_2_Si_2_O_5_(OH)_4_
Locality: Geisberg, Schweighausen, Black Forest, Germany
Source: Bob Jenkins
Description: Stacks of parallel pseudohexagonal white plates
Raman shift (cm-1)	intensity
138.781	0
141.673	1.84296
144.566	4.90588
147.459	1.67047
150.351	4.30685
153.244	1.23114
156.137	0.80954
159.03	0.068604
161.922	0.66449
164.815	2.19489
167.708	4.78851
170.6	0.010559
173.493	3.72443
176.386	4.59259
179.278	2.9241
182.171	1.44476
185.064	5.39255
187.957	4.7525
190.849	4.69015
193.742	4.45862
196.635	6.37344
199.527	5.51761
202.42	3.17978
205.313	2.29617
208.205	1.13785
211.098	0.706757
213.991	0.825226
216.884	0.587311
219.776	7.51389
222.669	8.81805
225.562	15.7016
228.454	19.5461
231.347	22.6523
234.24	25.079
237.132	28.6121
240.025	33.9401
242.918	26.3128
245.811	20.493
248.703	16.5632
251.596	10.7098
254.489	7.42535
257.381	8.95551
260.274	11.136
263.167	12.145
266.059	10.2173
268.952	17.1614
271.845	9.18594
274.738	8.92569
277.63	6.0755
280.523	7.65323
283.416	3.24957
286.308	0.503082
289.201	4.13657
292.094	2.97226
294.986	0.838654
297.879	0.289673
300.772	0.309509
303.665	0.307556
306.557	1.37973
309.45	6.21689
312.343	6.93774
315.235	10.3065
318.128	16.2104
321.021	16.5844
323.913	22.1575
326.806	26.6014
329.699	30.8321
332.592	30.9481
335.484	29.1543
338.377	23.1173
341.27	12.9598
344.162	10.356
347.055	9.17557
349.948	5.50754
352.841	3.56534
355.733	1.866
358.626	1.58685
361.519	1.83929
364.411	0.809967
367.304	0.213745
370.197	1.23029
373.089	1.35019
375.982	0.643066
378.875	0.755219
381.767	0.937286
384.66	0.470978
387.553	0.800964
390.446	4.28705
393.338	0.115967
396.231	4.4404
399.124	6.8128
402.016	11.7528
404.909	14.4595
407.802	20.9597
410.695	21.8943
413.587	29.7274
416.48	29.7803
419.373	31.9888
422.265	32.9927
425.158	32.0245
428.051	33.6805
430.943	29.9993
433.836	25.1057
436.729	21.1019
439.622	16.3012
442.514	15.8165
445.407	18.5727
448.3	22.4519
451.192	26.158
454.085	35.335
456.978	40.9832
459.87	45.8183
462.763	44.3762
465.656	42.0906
468.548	42.7188
471.441	36.9765
474.334	31.561
477.227	26.3695
480.119	18.5624
483.012	15.499
485.905	8.86737
488.797	4.31146
491.69	3.8262
494.583	3.90503
497.476	2.29007
500.368	1.50293
503.261	0.004547
506.154	1.73511
509.046	2.6777
511.939	2.20035
514.832	0.005524
517.724	1.02286
520.617	1.23932
523.51	1.67508
526.403	1.29684
529.295	1.46198
532.188	1.90213
535.081	2.09979
537.973	1.7659
540.866	2.19562
543.759	2.55936
546.651	3.34335
549.544	2.5481
552.437	4.98392
555.33	0.455994
558.222	0.975647
561.115	1.63373
564.008	1.27994
566.9	3.28525
569.793	3.26428
572.686	0.700226
575.578	1.64584
578.471	2.12711
581.364	2.78195
584.256	1.78781
587.149	0.35733
590.042	1.79254
592.935	1.49286
595.827	1.20401
598.72	1.98682
601.613	3.65036
604.505	1.2626
607.398	2.77841
610.291	1.52316
613.183	3.02451
616.076	1.06238
618.969	6.18961
621.862	3.12854
624.754	6.7081
627.647	4.63617
630.54	5.41647
633.432	5.55957
636.325	4.17792
639.218	6.11481
642.111	4.27039
645.003	3.22427
647.896	2.80542
650.789	0.514297
653.681	2.50891
656.574	0.122986
659.467	4.01923
662.359	0.086121
665.252	1.04271
668.145	0.66684
671.038	1.29581
673.93	0.191223
676.823	1.47319
679.716	0.583389
682.608	1.67271
685.501	1.67041
688.394	2.65982
691.286	4.15491
694.179	3.16213
697.072	6.15431
699.965	5.92543
702.857	7.28033
705.75	7.10229
708.643	7.72102
711.535	6.95648
714.428	7.53665
717.321	5.51871
720.213	6.22183
723.106	7.47064
725.999	9.15491
728.891	6.00159
731.784	9.85313
734.677	11.0608
737.57	15.0334
740.462	16.8731
743.355	15.2588
746.248	17.6942
749.14	20.5122
752.033	17.2003
754.926	12.1639
757.818	9.81679
760.711	7.35701
763.604	8.18753
766.497	5.16364
769.389	2.42763
772.282	2.67142
775.175	3.70459
778.067	6.48082
780.96	6.68665
783.853	9.6581
786.745	9.0276
789.638	10.8403
792.531	9.14269
795.424	9.89288
798.316	7.29404
801.209	4.29132
804.102	5.37174
806.994	1.38322
809.887	0.609177
812.78	1.24622
815.673	1.81796
818.565	1.608
821.458	1.43597
824.351	0.864105
827.243	0.517242
830.136	1.13409
833.029	0.315445
835.921	1.07747
838.814	1.38236
841.707	3.49165
844.6	0.018814
847.492	1.42448
850.385	0.920807
853.278	0.329575
856.17	0.609848
859.063	0.279633
861.956	2.07951
864.848	1.21829
867.741	1.55577
870.634	1.28902
873.527	2.27527
876.419	1.37794
879.312	1.93642
882.205	0.556946
885.097	0.459824
887.99	2.8374
890.883	3.13696
893.775	2.71477
896.668	2.93388
899.561	6.70734
902.454	12.1474
905.346	13.7016
908.239	20.1775
911.132	18.4436
914.024	19.6245
916.917	15.683
919.81	14.8614
922.702	11.3675
925.595	7.38155
928.488	7.7478
931.381	6.66038
934.273	7.49432
937.166	4.23578
940.059	4.54767
942.951	1.49051
945.844	2.71374
948.737	3.08546
951.63	1.48108
954.522	4.6586
957.415	0.859802
960.308	4.20056
963.2	2.71053
966.093	1.11159
968.986	1.05432
971.878	0.571823
974.771	0.52243
977.664	0.754822
980.557	0.049149
983.449	0.259674
986.342	0.590851
989.235	0.020645
992.127	1.88788
995.02	3.16852
997.913	4.86549
1000.8	2.63339
1003.7	2.79033
1006.59	2.37032
1009.48	0.947861
1012.38	1.73171
1015.27	2.83794
1018.16	3.31784
1021.05	4.47067
1023.95	4.04691
1026.84	3.72363
1029.73	2.18922
1032.62	2.93475
1035.52	3.7885
1038.41	0.355148
1041.3	3.45667
1044.2	2.45569
1047.09	3.40163
1049.98	2.74913
1052.87	0.06459
1055.77	2.85255
1058.66	0.90918
1061.55	0.295456
1064.44	1.16815
1067.34	1.40817
1070.23	0.475586
1073.12	0.398193
1076.02	2.63206
1078.91	0.18367
1081.8	0.477554
1084.69	3.15349
1087.59	2.92178
1090.48	2.32742
1093.37	0.411911
1096.27	1.9988
1099.16	0.606171
1102.05	0.589264
1104.94	0.553329
1107.84	0.64505
1110.73	2.14276
1113.62	1.82654
1116.51	0.782227
1119.41	0.642563
1122.3	0.880615
1125.19	2.59091
1128.08	0.77916
1130.98	1.43352
1133.87	0.252365
1136.76	2.02336
1139.65	1.87103
1142.55	0.996429
1145.44	1.85376
1148.33	0.643753
1151.23	1.42183
1154.12	0.534882
1157.01	1.87203
1159.9	1.75095
1162.8	2.49599
1165.69	1.87839
1168.58	1.66438
1171.47	3.39542
1174.37	2.64369
1177.26	0.708466
1180.15	2.87793
1183.05	3.53053
1185.94	2.25891
1188.83	0.410583
1191.72	2.97087
1194.62	1.03699
1197.51	2.71806
1200.4	1.02268
1203.29	1.09036
1206.19	2.5278
1209.08	0.052216
1211.97	2.89356
1214.87	3.74551
1217.76	1.73193
1220.65	1.62128
1223.54	0.554703
1226.44	2.81766
1229.33	3.96953
1232.22	0.196671
1235.11	1.18948
1238.01	1.18803
1240.9	0.854782
1243.79	2.35016
1246.68	2.14931
1249.58	1.30661
1252.47	1.61246
1255.36	2.65689
1258.26	1.95227
1261.15	4.8871
1264.04	2.60184
1266.93	2.28697
1269.83	1.66924
1272.72	2.55612
1275.61	1.94818
1278.51	0.498413
1281.4	5.27927
1284.29	3.38121
