Measurement: Raman, 785 nm, unoriented, Raman Data Processed
Mineral: Nagelschmidtite
Rruff sample: R070032
Ideal chemistry: Ca_7_(SiO_4_)_2_(PO_4_)_2_
Locality: Hatrurium Formation, Negev Desert, southern Israel
Source: Michael Scott
Raman shift (cm-1)	intensity
177.718	0
180.61	18.8555
183.503	106.797
186.396	20.2148
189.288	195.363
192.181	572.59
195.074	746.566
197.967	990.227
200.859	1233.11
203.752	1262.78
206.645	1272.73
209.537	936.211
212.43	611.598
215.323	678.359
218.215	723.387
221.108	1217.87
224.001	1652.43
226.894	1358.8
229.786	1109.38
232.679	1089.29
235.572	943.715
238.464	1075.15
241.357	1175.03
244.25	1298.23
247.143	1230.3
250.035	1157.86
252.928	866.035
255.821	654.75
258.713	679.391
261.606	1128.02
264.499	951.539
267.391	872.969
270.284	904.125
273.177	835.539
276.07	648.789
278.962	500.676
281.855	800.301
284.748	667.547
287.64	864.66
290.533	799.875
293.426	734.363
296.318	434.219
299.211	81.7812
302.104	447.621
304.997	319.961
307.889	378.129
310.782	603.348
313.675	574.203
316.567	414.16
319.46	192.016
322.353	215.031
325.245	422.031
328.138	669.75
331.031	676.066
333.923	1095.23
336.816	1089.86
339.709	371.453
342.602	398.293
345.494	325.672
348.387	467.129
351.28	497.633
354.172	396.75
357.065	513.676
359.958	399.75
362.851	16.5078
365.743	15.207
368.636	110.68
371.529	4.53125
374.421	130.098
377.314	254.477
380.207	347.762
383.099	257.121
385.992	5.24609
388.885	8.4375
391.777	125.039
394.67	163.762
397.563	248.883
400.456	282.609
403.348	261.469
406.241	89.6758
409.134	72.4961
412.026	72.8789
414.919	93.6719
417.812	176.914
420.704	398.184
423.597	294.66
426.49	440.336
429.383	126.816
432.275	228.211
435.168	271.254
438.061	313.516
440.953	229.547
443.846	604.66
446.739	814.051
449.632	1045.76
452.524	1014.17
455.417	1135.61
458.31	991.68
461.202	985.469
464.095	1001.78
466.988	780.723
469.88	627.16
472.773	353.207
475.666	112.027
478.558	168.898
481.451	3.74609
484.344	28
487.237	82.418
490.129	314.832
493.022	215.176
495.915	348.981
498.807	121.004
501.7	238.867
504.593	329.594
507.486	311.769
510.378	504.906
513.271	465.133
516.164	472.031
519.056	428.898
521.949	281.926
524.842	123.902
527.734	103.18
530.627	126.801
533.52	63.3242
536.413	151.266
539.305	334.965
542.198	380.769
545.091	64.5664
547.983	171.348
550.876	40.6797
553.769	130.348
556.661	67.4648
559.554	23.3945
562.447	131.078
565.34	152.984
568.232	199.18
571.125	35.6328
574.018	43.5508
576.91	37.7344
579.803	186.527
582.696	149.641
585.588	132.617
588.481	239.043
591.374	279.191
594.266	219.519
597.159	129.625
600.052	110.098
602.945	154.375
605.837	67.0312
608.73	197.922
611.623	213.812
614.515	343.769
617.408	448.891
620.301	331.273
623.193	222.019
626.086	221.629
628.979	321.484
631.872	366.731
634.764	295.469
637.657	213.383
640.55	231.004
643.442	265.625
646.335	320.758
649.228	220.234
652.12	247.43
655.013	110.098
657.906	317.293
660.799	30.8242
663.691	200.227
666.584	154.644
669.477	43.0469
672.369	120.801
675.262	63.5469
678.155	235.828
681.048	289.688
683.94	182.023
686.833	316.754
689.726	139.082
692.618	43.9297
695.511	57.4531
698.404	213.633
701.296	135.215
704.189	147.566
707.082	205.176
709.975	236.141
712.867	30.3398
715.76	12.707
718.653	123.348
721.545	194.957
724.438	186.961
727.331	226.109
730.223	17.9805
733.116	176.496
736.009	90.3672
738.902	100.289
741.794	148.238
744.687	118.977
747.58	39.1367
750.472	254.703
753.365	127.109
756.258	183.695
759.15	2.01953
762.043	223.785
764.936	121.402
767.828	206.371
770.721	180.269
773.614	29.9531
776.507	171.156
779.399	143.277
782.292	175.301
785.185	106.41
788.077	88.9102
790.97	50.957
793.863	104.836
796.755	142.668
799.648	171.629
802.541	162.769
805.434	92.293
808.326	112.797
811.219	127.238
814.112	129.82
817.004	72.6875
819.897	174.793
822.79	125.184
825.683	121.918
828.575	51.8789
831.468	180.894
834.361	36.5039
837.253	135.152
840.146	65.4375
843.039	211.879
845.931	95.875
848.824	305.879
851.717	4.18359
854.61	225.453
857.502	18.3516
860.395	177.699
863.288	204.973
866.18	201.234
869.073	221.18
871.966	227.941
874.858	156.148
877.751	115.723
880.644	295.898
883.537	147.047
886.429	7.39453
889.322	221.285
892.215	195.715
895.107	96.0078
898	191.742
900.893	133.305
903.785	38.4062
906.678	189.57
909.571	1.85938
912.463	56.207
915.356	159.141
918.249	209.582
921.142	95.207
924.034	160.856
926.927	30.2617
929.82	35.8047
932.712	179.828
935.605	118.844
938.498	189.598
941.39	131.512
944.283	110.941
947.176	233.801
950.069	163.031
952.961	128.496
955.854	158.32
958.747	90.918
961.639	236.773
964.532	157.797
967.425	308.688
970.317	197.449
973.21	177.043
976.103	231.375
978.996	420.488
981.888	824.777
984.781	1328.81
987.674	2629.47
990.566	3637.1
993.459	1929.22
996.352	707.402
999.245	279.445
1002.14	385.875
1005.03	234.531
1007.92	207.652
1010.82	179.121
1013.71	153.141
1016.6	219.137
1019.49	152.731
1022.39	182.172
1025.28	223.918
1028.17	37.8477
1031.06	32.625
1033.96	126.176
1036.85	193.856
1039.74	41.9258
1042.63	140.602
1045.53	101.816
1048.42	148.902
1051.31	103.203
1054.21	228.906
1057.1	31.043
1059.99	196.137
1062.88	152.711
1065.78	205.09
1068.67	208.562
1071.56	168.731
1074.45	209.43
1077.35	114.406
1080.24	122.422
1083.13	260.531
1086.03	168.324
1088.92	86.7109
1091.81	219.988
1094.7	290.086
1097.6	140.652
1100.49	212.609
1103.38	254.203
1106.27	213.375
1109.17	109.852
1112.06	170.414
1114.95	4.875
1117.85	35.9961
1120.74	16.3984
1123.63	32.5195
1126.52	135.301
1129.42	50.0625
1132.31	90.4297
1135.2	76.6641
1138.09	125.547
1140.99	176.461
1143.88	183.965
1146.77	230.875
1149.66	210.168
1152.56	40.2266
1155.45	72.5742
1158.34	146.57
1161.24	36.0469
1164.13	124.176
1167.02	124.992
1169.91	221.965
1172.81	41.6289
1175.7	93.4414
1178.59	161.727
1181.48	73.6602
1184.38	4.03125
1187.27	198.25
1190.16	108.66
1193.06	96.5234
1195.95	118.039
1198.84	170.32
1201.73	151.809
1204.63	136.246
1207.52	59.0312
1210.41	162.391
1213.3	140.914
1216.2	172.25
1219.09	213.453
1221.98	181.051
1224.88	160.519
1227.77	135.031
1230.66	75.2383
1233.55	155.949
1236.45	40.6445
1239.34	81.3594
1242.23	0
