Measurement: Raman, 532 nm, unoriented, Raman Data Processed
Mineral: Nagelschmidtite
Rruff sample: R070032
Ideal chemistry: Ca_7_(SiO_4_)_2_(PO_4_)_2_
Locality: Hatrurium Formation, Negev Desert, southern Israel
Source: Michael Scott
Raman shift (cm-1)	intensity
177.663	0
180.555	189.078
183.448	144.266
186.341	463.602
189.234	436.758
192.126	618.375
195.019	703.555
197.912	640.742
200.804	745.734
203.697	646.258
206.59	812.148
209.482	599.039
212.375	775.711
215.268	583.5
218.161	739.156
221.053	943.031
223.946	814.516
226.839	780.438
229.731	954.414
232.624	834.219
235.517	853.609
238.41	813.836
241.302	852.859
244.195	884.414
247.088	763.461
249.98	636.414
252.873	707.016
255.766	644.906
258.658	588.422
261.551	371.023
264.444	405.164
267.337	401.68
270.229	198.141
273.122	230.352
276.015	101.969
278.907	492.922
281.8	417.023
284.693	487.234
287.585	467.219
290.478	246.07
293.371	326.453
296.263	200.102
299.156	150.812
302.049	152.789
304.942	165.984
307.834	15.6094
310.727	24.0938
313.62	79.9375
316.512	267
319.405	87.6562
322.298	13.7812
325.19	346.102
328.083	253.914
330.976	418.055
333.868	206.07
336.761	471.055
339.654	349.32
342.547	335.742
345.439	312.914
348.332	334.969
351.225	377.531
354.117	445.891
357.01	172.312
359.903	275.133
362.796	23.4688
365.688	107.891
368.581	236.469
371.474	106.812
374.366	256.852
377.259	42.0938
380.152	109.133
383.044	114.406
385.937	186.039
388.83	15.6719
391.722	21.2422
394.615	42.8359
397.508	215.422
400.401	135.648
403.293	109.453
406.186	49.3828
409.079	257.219
411.971	160.508
414.864	212.852
417.757	152.398
420.649	37.6875
423.542	333.477
426.435	330.055
429.327	616.617
432.22	513.203
435.113	528.023
438.006	486.789
440.898	507.102
443.791	369.453
446.684	946.516
449.576	1057.58
452.469	1335.39
455.362	1151.05
458.255	1169.75
461.147	937.578
464.04	706.219
466.933	449.125
469.825	307.688
472.718	531.281
475.611	101.906
478.503	414.797
481.396	341.875
484.289	48.4375
487.182	209.281
490.074	440.312
492.967	462.438
495.86	387.656
498.752	506.156
501.645	228.031
504.538	484.938
507.43	730.859
510.323	383.281
513.216	880.188
516.109	799.875
519.001	607.234
521.894	172.797
524.787	194.891
527.679	350.922
530.572	219.938
533.465	290.594
536.357	15.625
539.25	378.578
542.143	63.75
545.035	67.4062
547.928	161.641
550.821	251.344
553.713	200
556.606	42.625
559.499	181.594
562.392	160.359
565.284	3.65625
568.177	155.672
571.07	90.2969
573.962	139.594
576.855	1.45312
579.748	24.9844
582.64	159.922
585.533	195.719
588.426	268.344
591.319	185.516
594.211	188
597.104	376.266
599.997	287.094
602.889	312.75
605.782	429
608.675	257.875
611.567	423.578
614.46	672.891
617.353	445.625
620.245	768.844
623.138	556.172
626.031	394.891
628.924	579.672
631.816	258.75
634.709	592.75
637.602	678.828
640.494	471.375
643.387	560.359
646.28	821.5
649.173	1060.14
652.065	870.609
654.958	652.938
657.851	757.406
660.743	1442.56
663.636	1191.94
666.529	456.047
669.421	553.453
672.314	446
675.207	791.422
678.1	590.375
680.992	747.906
683.885	641.906
686.778	717.422
689.67	503
692.563	513.984
695.456	630.969
698.348	572.047
701.241	250.891
704.134	319.625
707.027	313.766
709.919	194.812
712.812	20.7188
715.705	242.078
718.597	173.891
721.49	193.406
724.383	91.2344
727.275	125.562
730.168	312.062
733.061	60.5781
735.953	289.969
738.846	534.234
741.739	450.375
744.631	535.656
747.524	570.016
750.417	318.547
753.31	327.406
756.202	446.359
759.095	105.359
761.988	140.312
764.88	116.281
767.773	522.422
770.666	22.5
773.558	110.984
776.451	56.7031
779.344	232.156
782.237	51.4688
785.129	256.359
788.022	354.766
790.915	460.734
793.807	265.812
796.7	13.7812
799.593	516.891
802.486	6.57812
805.378	95.6875
808.271	113.109
811.164	148.266
814.056	211.781
816.949	344.594
819.842	257.844
822.734	339.625
825.627	305.578
828.52	361.422
831.413	168.172
834.305	354.672
837.198	196.25
840.091	141.562
842.983	113.234
845.876	317.375
848.769	551.609
851.661	300.344
854.554	435.594
857.447	257.891
860.34	559.438
863.232	18.0781
866.125	101.859
869.018	522.609
871.91	353.359
874.803	174.797
877.696	218.547
880.588	516.359
883.481	97.2188
886.374	11.75
889.266	208.531
892.159	602.438
895.052	196.422
897.944	61.9375
900.837	90.1406
903.73	166.234
906.623	373.031
909.515	513.828
912.408	281.266
915.301	435.391
918.193	411.016
921.086	454.594
923.979	94.7188
926.871	230.719
929.764	254.141
932.657	129.188
935.55	39.5625
938.442	303.797
941.335	249.219
944.228	368.062
947.12	94
950.013	391.219
952.906	515.219
955.798	556.344
958.691	714.688
961.584	612.781
964.477	571.562
967.369	194.062
970.262	409.156
973.155	489.75
976.047	514.297
978.94	796.281
981.833	1172.83
984.726	2235.3
987.618	2988.75
990.511	3440.53
993.404	1878.31
996.296	785.688
999.189	543.062
1002.08	161.109
1004.97	392.234
1007.87	294.016
1010.76	241.594
1013.65	252.828
1016.54	174.812
1019.44	58.625
1022.33	36.25
1025.22	325.672
1028.12	154.875
1031.01	398.188
1033.9	305.484
1036.79	218.656
1039.69	506.312
1042.58	241.359
1045.47	321.156
1048.37	171.766
1051.26	360.281
1054.15	8.29688
1057.04	114.672
1059.94	67.0781
1062.83	338.984
1065.72	293.094
1068.61	222.594
1071.51	623.922
1074.4	119.062
1077.29	548.734
1080.18	369.828
1083.08	801.75
1085.97	478.797
1088.86	363.922
1091.76	202.75
1094.65	613.75
1097.54	77
1100.43	390.531
1103.33	81.4062
1106.22	438.844
1109.11	399.031
1112	197.844
1114.9	185.078
1117.79	364.328
1120.68	240.266
1123.58	237.094
1126.47	129.938
1129.36	410.266
1132.25	329.906
1135.15	183.203
1138.04	66.7969
1140.93	422.828
1143.82	727.109
1146.72	800.531
1149.61	375.906
1152.5	896.453
1155.39	215.578
1158.29	531.312
1161.18	519.516
1164.07	211.156
1166.96	425.016
1169.86	409.344
1172.75	107.453
1175.64	393.516
1178.54	508.953
1181.43	494.391
1184.32	528.578
1187.21	575.859
1190.11	192.109
1193	536.859
1195.89	416.562
1198.79	573.344
1201.68	360.656
1204.57	131.578
1207.46	12.8125
1210.36	633.344
1213.25	15.1719
1216.14	321.484
1219.03	202.266
1221.93	634.562
1224.82	420.594
1227.71	30.0781
1230.61	178.406
1233.5	350.141
1236.39	95.7344
1239.28	115.266
1242.18	114.938
1245.07	400.719
1247.96	357.547
1250.85	386.438
1253.75	117.5
1256.64	111.234
1259.53	174.781
1262.42	260.031
1265.32	670.453
1268.21	486.484
1271.1	140.719
1273.99	753.844
1276.89	642.969
1279.78	698.875
1282.67	67.3281
1285.57	686.078
1288.46	401.234
1291.35	422.406
1294.24	130.75
1297.14	216.516
1300.03	406.062
1302.92	539.953
1305.82	86.0938
1308.71	30.6094
