Measurement: Raman, 785 nm, unoriented, Raman Data Processed
Mineral: Nagyagite
Rruff sample: R060723
Ideal chemistry: [Pb(Pb,Sb)S_2_][(Au,Te)]
Locality: Nagyag, Romania
Source: Bob Jenkins
Description: Dark grey metallic tabular crystal
Raman shift (cm-1)	intensity
159.615	0
162.508	138.486
165.401	57.6047
168.293	165.573
171.186	208.748
174.079	155.199
176.971	118.649
179.864	102.818
182.757	0.574707
185.65	15.5559
188.542	35.2476
191.435	11.2102
194.328	20.9126
197.22	105.282
200.113	153.248
203.006	154.271
205.898	103.072
208.791	111.392
211.684	38.8289
214.577	34.3583
217.469	68.8346
220.362	126.24
223.255	167.555
226.147	154.151
229.04	171.376
231.933	267.389
234.825	333.711
237.718	373.199
240.611	488.072
243.503	486.958
246.396	482.756
249.289	451.762
252.182	390.419
255.074	400.867
257.967	307.285
260.86	291.527
263.752	237.257
266.645	208.293
269.538	200.069
272.431	171.429
275.323	156.701
278.216	124.524
281.109	131.375
284.001	104.947
286.894	76.1988
289.787	7.20801
292.679	10.9771
295.572	12.9509
298.465	69.0286
301.358	170.64
304.25	273.473
307.143	364.716
310.036	422.38
312.928	466.947
315.821	424.469
318.714	348.473
321.606	196.43
324.499	140.964
327.392	98.2112
330.284	70.9852
333.177	59.7461
336.07	54.9489
338.963	35.1364
341.855	52.7448
344.748	110.915
347.641	142.846
350.533	186.142
353.426	193.221
356.319	135.395
359.211	72.6761
362.104	33.256
364.997	6.03607
367.89	12.9055
370.782	15.7036
373.675	29.8058
376.568	4.78101
379.46	2.23144
382.353	20.4655
385.246	7.08179
388.138	35.4777
391.031	7.9555
393.924	9.58478
396.817	48.2412
399.709	33.017
402.602	6.89294
405.495	29.1436
408.387	1.2724
411.28	29.2463
414.173	39.6701
417.065	60.8638
419.958	36.3389
422.851	45.4495
425.744	33.9451
428.636	28.3544
431.529	19.7251
434.422	32.6103
437.314	51.3612
440.207	40.0177
443.1	36.3282
445.992	33.6216
448.885	37.3257
451.778	36.4777
454.671	41.1494
457.563	34.561
460.456	20.9739
463.349	34.5629
466.241	13.4229
469.134	16.4664
472.027	15.9477
474.919	27.2869
477.812	35.279
480.705	27.4573
483.598	23.2717
486.49	30.3597
489.383	22.8837
492.276	30.3538
495.168	29.2278
498.061	31.2468
500.954	15.2534
503.846	9.37335
506.739	13.772
509.632	7.09241
512.525	29.5959
515.417	11.621
518.31	25.8453
521.203	27.5541
524.096	45.4552
526.988	37.1564
529.881	48.2722
532.774	9.58795
535.666	3.44434
538.559	3.39185
541.452	13.6222
544.344	26.6214
547.237	9.84296
550.13	14.7568
553.023	11.2631
555.915	22.5555
558.808	45.1239
561.701	53.9029
564.593	9.61432
567.486	12.7195
570.379	7.18079
573.271	31.1282
576.164	23.725
579.057	14.9769
581.95	41.3677
584.842	13.2681
587.735	17.1506
590.628	9.49213
593.52	23.8514
596.413	27.704
599.306	31.8987
602.198	39.41
605.091	13.9822
607.984	44.3237
610.876	27.8865
613.769	27.1211
616.662	9.74158
619.555	37.9573
622.447	29.0328
625.34	53.5327
628.233	10.8539
631.125	3.75012
634.018	15.4011
636.911	23.1008
639.803	21.4962
642.696	2.01086
645.589	23.3151
648.482	6.1004
651.374	5.98547
654.267	21.7998
657.16	8.49103
660.052	2.7113
662.945	7.98798
665.838	9.21381
668.73	11.846
671.623	24.6439
674.516	0.84729
677.409	20.9791
680.301	25.541
683.194	47.6293
686.087	22.3696
688.979	24.7092
691.872	27.3498
694.765	27.8827
697.657	23.1342
700.55	48.1625
703.443	13.6045
706.336	28.0284
709.228	6.69171
712.121	32.445
715.014	5.25928
717.906	24.4195
720.799	31.2356
723.692	34.2799
726.584	10.9224
729.477	45.2153
732.37	45.0387
735.263	16.0666
738.155	5.14264
741.048	28.322
743.941	9.22217
746.833	29.6358
749.726	11.2546
752.619	24.8226
755.511	28.5261
758.404	17.7274
761.297	18.6484
764.19	48.2578
767.082	12.1127
769.975	19.2225
772.868	13.553
775.76	41.9842
778.653	4.58008
781.546	27.0892
784.438	20.7669
787.331	9.6206
790.224	25.4282
793.117	29.8543
796.009	31.2689
798.902	12.1976
801.795	10.902
804.687	9.43249
807.58	32.4464
810.473	48.7775
813.365	15.0536
816.258	43.0489
819.151	21.0903
822.044	13.3322
824.936	43.7582
827.829	14.4437
830.722	13.2255
833.614	8.19275
836.507	29.6712
839.4	29.4725
842.292	17.1371
845.185	58.5102
848.078	51.6418
850.971	14.2867
853.863	6.5614
856.756	25.131
859.649	8.83606
862.541	33.0909
865.434	6.76086
868.327	36.108
871.219	19.082
874.112	33.6258
877.005	20.461
879.898	11.9831
882.79	31.593
885.683	44.3712
888.576	14.7012
891.468	25.663
894.361	40.8599
897.254	13.7346
900.146	22.0564
903.039	14.9479
905.932	35.3436
908.825	13.3931
911.717	30.0878
914.61	21.3085
917.503	26.3306
920.395	1.05188
923.288	8.22131
926.181	32.8987
929.073	49.0826
931.966	33.8175
934.859	28.2209
937.752	30.9316
940.644	14.0359
943.537	14.6915
946.43	19.4601
949.322	7.20123
952.215	13.5792
955.108	3.80633
958	29.4276
960.893	32.2787
963.786	16.2175
966.679	50.6278
969.571	42.1622
972.464	49.7181
975.357	40.8401
978.249	40.0269
981.142	29.2827
984.035	16.8829
986.927	20.1949
989.82	6.58777
992.713	3.49329
995.606	7.82062
998.498	10.525
1001.39	10.8044
1004.28	22.712
1007.18	18.4229
1010.07	29.3354
1012.96	18.0111
1015.85	18.4318
1018.75	53.9905
1021.64	2.50922
1024.53	12.2455
1027.42	1.60065
1030.32	23.9517
1033.21	46.042
1036.1	28.1581
1039	56.9272
1041.89	17.2771
1044.78	30.7656
1047.67	33.5778
1050.57	38.0549
1053.46	36.5495
1056.35	26.7901
1059.24	41.2497
1062.14	36.8404
1065.03	14.7604
1067.92	27.331
1070.82	42.2013
1073.71	6.46429
1076.6	9.94006
1079.49	14.2282
1082.39	18.5552
1085.28	8.69421
1088.17	31.0913
1091.07	22.4055
1093.96	12.3079
1096.85	18.0361
1099.74	0.730713
1102.63	19.8197
1105.53	3.70416
1108.42	18.7078
1111.31	10.5878
1114.21	4.83057
1117.1	26.6871
1119.99	3.53784
1122.88	25.3402
1125.78	6.98731
1128.67	21.0744
1131.56	11.5353
1134.45	38.0204
1137.35	21.7208
1140.24	16.8595
1143.13	36.502
1146.03	35.8551
1148.92	55.4435
1151.81	56.4163
1154.7	7.83655
1157.6	21.3433
1160.49	43.9044
1163.38	34.4099
1166.28	29.1361
1169.17	51.1506
1172.06	31.9589
1174.95	38.0025
1177.85	22.7479
1180.74	16.4754
1183.63	35.4227
1186.52	61.8658
1189.42	23.8529
1192.31	36.3492
1195.2	34.7935
1198.09	39.2629
1200.99	46.9864
1203.88	1.50256
1206.77	26.067
1209.66	39.5695
1212.56	13.2128
1215.45	58.4539
1218.34	49.6879
1221.24	78.8467
1224.13	31.9199
1227.02	69.8055
1229.91	60.9282
1232.81	57.4385
1235.7	36.4851
1238.59	20.2549
1241.48	26.9312
1244.38	54.868
1247.27	40.0765
1250.16	40.2586
1253.06	52.075
1255.95	44.4304
1258.84	25.9355
1261.73	14.463
1264.63	33.6804
