Measurement: Raman, 532 nm, unoriented, Raman Data Processed
Mineral: Nagyagite
Rruff sample: R060865
Ideal chemistry: [Pb(Pb,Sb)S_2_][(Au,Te)]
Locality: Nagyog, Transylvania
Source: Michael Scott
Description: Black vitreous massive
Raman shift (cm-1)	intensity
153.343	0
156.235	32.1194
159.128	3.03247
162.021	52.2283
164.913	58.4419
167.806	67.1953
170.699	39.5796
173.592	16.6934
176.484	31.2976
179.377	39.6699
182.27	123.138
185.162	71.3108
188.055	52.5857
190.948	92.9004
193.84	91.9243
196.733	167.505
199.626	74.1856
202.519	125.944
205.411	146.325
208.304	117.713
211.197	91.5627
214.089	24.5706
216.982	45.3118
219.875	51.7388
222.767	5.32861
225.66	76.7449
228.553	116.575
231.446	170.018
234.338	196.157
237.231	297.101
240.124	314.654
243.016	346.109
245.909	335.362
248.802	420.988
251.694	341.164
254.587	324.46
257.48	325.904
260.373	270.896
263.265	280.788
266.158	205.369
269.051	179.954
271.943	161.796
274.836	108.213
277.729	114.779
280.621	38.7261
283.514	59.2602
286.407	57.4431
289.3	5.25488
292.192	13.3457
295.085	26.3945
297.978	30.1043
300.87	59.0457
303.763	160.237
306.656	136.595
309.548	149.435
312.441	176.898
315.334	194.74
318.226	128.473
321.119	94.6672
324.012	99.0422
326.904	81.2313
329.797	62.4676
332.69	63.9968
335.583	72.3828
338.475	5.96606
341.368	53.4017
344.261	39.3059
347.153	32.7749
350.046	30.9305
352.939	14.5867
355.832	38.4066
358.724	60.728
361.617	45.8734
364.51	27.8995
367.402	22.5188
370.295	13.338
373.188	17.4179
376.08	95.1417
378.973	40.6084
381.866	17.7522
384.759	14.2541
387.651	53.4238
390.544	16.1977
393.437	80.641
396.329	17.5364
399.222	38.2811
402.115	2.79358
405.007	0.901001
407.9	12.2957
410.793	33.6865
413.685	38.27
416.578	51.2562
419.471	26.5708
422.364	53.6759
425.256	40.6523
428.149	46.9778
431.042	57.6342
433.934	20.4286
436.827	59.3289
439.72	36.1007
442.612	46.7546
445.505	43.5593
448.398	23.4674
451.291	29.6553
454.183	39.8857
457.076	46.5647
459.969	36.2606
462.861	36.8829
465.754	26.1575
468.647	37.536
471.539	41.3295
474.432	55.4832
477.325	18.2479
480.217	45.7373
483.11	22.094
486.003	12.6838
488.896	58.4868
491.788	18.4033
494.681	20.3596
497.574	15.3435
500.466	38.2429
503.359	33.187
506.252	3.93579
509.144	44.1472
512.037	17.7561
514.93	53.812
517.823	27.0078
520.715	12.4238
523.608	29.5649
526.501	34.1352
529.393	27.5972
532.286	41.8882
535.179	17.4793
538.072	41.5317
540.964	56.8418
543.857	70.3655
546.75	27.5386
549.642	48.2773
552.535	32.8879
555.428	26.2918
558.32	52.7644
561.213	23.2664
564.106	18.6577
566.998	20.7
569.891	45.4001
572.784	70.1106
575.677	86.0635
578.569	14.8818
581.462	41.2495
584.355	37.5222
587.247	33.6101
590.14	34.3608
593.033	34.9358
595.925	12.1914
598.818	16.3672
601.711	20.844
604.604	42.8374
607.496	53.8879
610.389	15.5381
613.282	52.3989
616.174	32.7971
619.067	2.8269
621.96	52.6282
624.852	54.9477
627.745	73.8733
630.638	52.7649
633.53	53.3916
636.423	38.8481
639.316	26.5732
642.209	26.6047
645.101	13.3665
647.994	30.3105
650.887	55.8933
653.779	62.0776
656.672	23.7683
659.565	44.5676
662.457	49.6401
665.35	50.5017
668.243	16.1213
671.135	22.0952
674.028	63.2334
676.921	48.3591
679.814	13.4968
682.706	72.228
685.599	50.7012
688.492	47.3259
691.384	73.6448
694.277	9.66455
697.17	13.4819
700.062	42.0305
702.955	56.9841
705.848	28.877
708.741	63.1863
711.633	26.5557
714.526	27.5598
717.419	63.6052
720.311	22.4629
723.204	68.5791
726.097	38.5571
728.99	66.7146
731.882	71.6199
734.775	15.1423
737.668	26.5645
740.56	62.946
743.453	50.864
746.346	69.9753
749.238	70.1711
752.131	44.627
755.024	14.6289
757.916	35.0085
760.809	34.0735
763.702	16.178
766.595	17.9409
769.487	28.0027
772.38	7.48242
775.273	33.8904
778.165	22.3877
781.058	51.6165
783.951	31.5134
786.843	17.4729
789.736	26.6086
792.629	40.5305
795.521	74.552
798.414	31.7878
801.307	2.72778
804.2	10.3108
807.092	13.4531
809.985	11.9924
812.878	35.5518
815.77	48.1152
818.663	39.1174
821.556	20.5823
824.448	15.0596
827.341	35.6853
830.234	67.1523
833.127	26.0923
836.019	7.50757
838.912	9.13037
841.805	27.1423
844.697	32.5029
847.59	27.4744
850.483	14.5454
853.375	35.6399
856.268	15.7727
859.161	29.3218
862.053	18.8076
864.946	3.47534
867.839	93.4446
870.732	34.1899
873.624	10.3428
876.517	64.3872
879.41	43.032
882.302	65.1165
885.195	51.8706
888.088	69.9155
890.981	29.271
893.873	41.2539
896.766	82.6604
899.659	22.217
902.551	16.6997
905.444	86.593
908.337	39.1465
911.229	11.2244
914.122	68.9204
917.015	57.7556
919.908	75.2029
922.8	42.0547
925.693	58.8543
928.586	72.4265
931.478	40.7312
934.371	74.2383
937.264	33.646
940.156	63.02
943.049	20.8118
945.942	32.7441
948.835	73.2554
951.727	28.0049
954.62	59.1174
957.513	26.967
960.405	45.6106
963.298	24.0994
966.191	33.9385
969.083	9.43481
971.976	34.1108
974.869	28.9502
977.761	7.95337
980.654	48.7639
983.547	11.355
986.439	12.3396
989.332	32.3586
992.225	1.33179
995.118	12.7146
998.01	34.3438
1000.9	30.8923
1003.8	11.3201
1006.69	24.9451
1009.58	11.7163
1012.47	73.4853
1015.37	26.4641
1018.26	54.9319
1021.15	72.4731
1024.05	43.5645
1026.94	88.116
1029.83	26.0039
1032.72	46.0256
1035.62	24.7178
1038.51	38.4209
1041.4	46.4746
1044.29	14.0405
1047.19	54.9409
1050.08	23.6729
1052.97	51.1716
1055.86	50.98
1058.76	50.4231
1061.65	61.988
1064.54	49.7144
1067.43	3.41162
1070.33	24.8081
1073.22	8.59204
1076.11	5.30908
1079.01	12.8088
1081.9	30.374
1084.79	45.4661
1087.68	79.2493
1090.58	25.9123
1093.47	53.7344
1096.36	44.5999
1099.26	72.3125
1102.15	57.7949
1105.04	21.0134
1107.93	59.7856
1110.83	54.0969
1113.72	72.2888
1116.61	50.002
1119.5	26.3428
1122.4	4.88428
1125.29	17.3896
1128.18	36.5332
1131.07	61.0083
1133.97	33.7817
1136.86	86.3274
1139.75	18.1191
1142.64	54.3332
1145.54	58.8511
1148.43	17.352
1151.32	27.4412
1154.22	61.9348
1157.11	24.874
1160	6.61353
1162.89	18.9824
1165.79	41.0403
1168.68	18.0652
1171.57	50.3237
1174.46	67.1179
1177.36	0.256592
1180.25	18.1531
1183.14	67.6826
1186.04	17.4382
1188.93	26.3337
1191.82	22.3811
1194.71	32.584
1197.61	0.220215
1200.5	100.297
1203.39	45.3245
1206.29	87.1392
1209.18	63.6606
1212.07	58.3909
1214.96	57.1177
1217.86	13.9902
1220.75	56.6638
1223.64	20.4629
1226.53	73.2268
1229.43	109.117
1232.32	63.0071
1235.21	26.676
1238.1	89.175
1241	74.2244
1243.89	80.0107
1246.78	102.531
1249.67	77.8044
1252.57	61.3235
1255.46	64.3499
1258.35	28.6848
1261.25	45.1753
1264.14	26.0215
1267.03	16.6753
1269.92	15.5596
1272.82	95.4985
1275.71	33.7683
1278.6	45.4004
1281.49	0
