Measurement: Raman, 532 nm, unoriented, Raman Data Processed
Mineral: Nagyagite
Rruff sample: R060723
Ideal chemistry: [Pb(Pb,Sb)S_2_][(Au,Te)]
Locality: Nagyag, Romania
Source: Bob Jenkins
Description: Dark grey metallic tabular crystal
Raman shift (cm-1)	intensity
151.414	0
154.307	35.5042
157.199	27.1588
160.092	56.3041
162.985	99.2794
165.877	86.6218
168.77	22.3273
171.663	47.8192
174.555	9.22046
177.448	18.403
180.341	6.13306
183.234	2.81848
186.126	3.53943
189.019	42.8306
191.912	14.0409
194.804	63.3602
197.697	22.1073
200.59	59.0537
203.482	49.0248
206.375	100.949
209.268	87.8573
212.161	106.916
215.053	101.923
217.946	121.71
220.839	105.388
223.731	111.305
226.624	97.0237
229.517	129.552
232.41	152.57
235.302	160.386
238.195	187.28
241.088	248.048
243.98	266.375
246.873	291.121
249.766	260.659
252.658	256.294
255.551	224.121
258.444	216.647
261.336	230.507
264.229	223.633
267.122	222.823
270.015	230.027
272.907	181.182
275.8	185.012
278.693	192.254
281.585	147.363
284.478	116.585
287.371	120.49
290.263	75.007
293.156	99.6383
296.049	85.9021
298.942	140.924
301.834	177.128
304.727	273.322
307.62	362.396
310.512	385.536
313.405	344.388
316.298	302.966
319.19	179.332
322.083	130.349
324.976	55.9857
327.868	26.8964
330.761	16.2295
333.654	11.8381
336.547	13.539
339.439	17.2257
342.332	43.0867
345.225	79.33
348.117	135.636
351.01	154.537
353.903	150.379
356.796	131.065
359.688	53.7938
362.581	51.5416
365.474	3.56867
368.366	8.17879
371.259	21.4256
374.152	3.44305
377.044	18.8297
379.937	17.0279
382.83	1.95367
385.723	41.4177
388.615	18.427
391.508	37.303
394.401	34.6037
397.293	36.4913
400.186	22.8791
403.079	10.1829
405.971	29.2177
408.864	26.1502
411.757	34.544
414.65	50.3106
417.542	21.3289
420.435	33.9368
423.328	26.6749
426.22	18.2691
429.113	14.3974
432.006	44.4908
434.898	48.5899
437.791	39.0909
440.684	58.3002
443.576	40.2192
446.469	4.19601
449.362	37.4614
452.254	28.4083
455.147	16.7204
458.04	37.9948
460.933	33.1251
463.825	2.9707
466.718	13.0204
469.611	16.1258
472.503	17.7495
475.396	4.73721
478.289	47.1039
481.181	29.4835
484.074	36.7241
486.967	29.3743
489.86	0.085541
492.752	20.4133
495.645	27.4494
498.538	8.30216
501.43	2.08551
504.323	7.51352
507.216	24.7396
510.108	5.6217
513.001	7.62323
515.894	1.11874
518.787	21.257
521.679	32.4354
524.572	27.7661
527.465	34.6144
530.357	48.9445
533.25	25.3777
536.143	26.0371
539.036	58.308
541.928	11.9517
544.821	17.048
547.714	12.0723
550.606	17.899
553.499	35.6602
556.392	1.96863
559.284	23.6053
562.177	36.7887
565.07	24.324
567.963	30.7366
570.855	50.6827
573.748	15.733
576.641	45.6051
579.533	15.7371
582.426	9.17749
585.319	33.8909
588.211	15.8079
591.104	14.8128
593.997	22.4127
596.89	19.6171
599.782	2.13364
602.675	15.774
605.568	40.6602
608.46	21.0943
611.353	35.2985
614.246	40.57
617.138	38.2003
620.031	16.5678
622.924	45.6895
625.816	33.5794
628.709	51.3125
631.602	21.0027
634.495	3.97015
637.387	0.679901
640.28	15.5691
643.173	10.9161
646.065	5.53696
648.958	21.655
651.851	26.0094
654.743	27.0021
657.636	29.9589
660.529	27.8404
663.422	20.4702
666.314	15.0241
669.207	15.1698
672.1	35.3854
674.992	23.6716
677.885	0.164185
680.778	18.325
683.67	30.6332
686.563	25.9548
689.456	34.1882
692.349	36.1844
695.241	22.5272
698.134	45.8138
701.027	33.8006
703.919	26.8091
706.812	38.5498
709.705	34.0243
712.597	25.4304
715.49	26.1808
718.383	9.69186
721.276	21.3057
724.168	29.0715
727.061	30.3447
729.954	53.0604
732.846	35.5158
735.739	47.8372
738.632	40.704
741.524	49.8351
744.417	39.2923
747.31	52.4165
750.203	38.7956
753.095	4.61325
755.988	34.4909
758.881	26.141
761.773	9.59177
764.666	3.06552
767.559	23.5022
770.451	40.5114
773.344	19.898
776.237	39.6324
779.13	47.4205
782.022	44.8542
784.915	16.8192
787.807	15.9147
790.7	39.3749
793.593	31.1303
796.486	20.4918
799.378	20.4463
802.271	16.7418
805.164	13.2893
808.056	10.9782
810.949	42.2495
813.842	27.7758
816.734	43.4327
819.627	48.4302
822.52	40.8003
825.413	41.7201
828.305	10.7484
831.198	35.87
834.091	26.2197
836.983	3.62509
839.876	9.53757
842.769	18.4594
845.661	7.27063
848.554	24.3817
851.447	11.885
854.34	38.2912
857.232	44.468
860.125	29.9335
863.018	31.5031
865.91	39.1352
868.803	12.7296
871.696	29.363
874.588	42.7045
877.481	16.8458
880.374	25.4189
883.266	16.3206
886.159	30.3678
889.052	26.7903
891.945	38.5636
894.837	34.1981
897.73	21.6127
900.623	37.969
903.515	29.5174
906.408	35.0507
909.301	37.1542
912.193	18.8766
915.086	10.3984
917.979	28.1209
920.872	8.84323
923.764	28.3679
926.657	24.6288
929.55	17.8066
932.442	8.64755
935.335	19.7851
938.228	25.9064
941.12	56.6254
944.013	39.1199
946.906	28.2965
949.799	37.0445
952.691	18.3851
955.584	38.216
958.477	3.01553
961.369	10.6822
964.262	18.9024
967.155	28.1697
970.047	12.9932
972.94	17.4394
975.833	34.2699
978.726	48.9512
981.618	43.773
984.511	31.1954
987.404	52.3961
990.296	32.1191
993.189	30.2958
996.082	17.0576
998.974	16.0324
1001.87	15.7096
1004.76	12.2281
1007.65	32.7956
1010.54	23.8113
1013.44	15.1899
1016.33	45.3687
1019.22	47.968
1022.12	29.8333
1025.01	48.7882
1027.9	38.1192
1030.79	39.2285
1033.69	42.9178
1036.58	49.7514
1039.47	17.562
1042.37	16.6601
1045.26	23.4068
1048.15	36.1568
1051.04	45.8623
1053.94	44.695
1056.83	69.0781
1059.72	46.0076
1062.61	30.8639
1065.51	38.4116
1068.4	43.7583
1071.29	36.0974
1074.18	25.6555
1077.08	30.2562
1079.97	11.5756
1082.86	16.6857
1085.76	20.3339
1088.65	41.1036
1091.54	8.96515
1094.43	18.3062
1097.33	23.0143
1100.22	30.2177
1103.11	33.7997
1106	29.1149
1108.9	18.9427
1111.79	17.5064
1114.68	14.927
1117.58	32.3633
1120.47	17.3576
1123.36	15.6237
1126.25	11.4573
1129.15	42.7643
1132.04	29.3596
1134.93	10.3713
1137.82	39.2386
1140.72	36.8969
1143.61	13.0397
1146.5	11.7333
1149.39	8.55478
1152.29	13.2716
1155.18	16.7377
1158.07	21.88
1160.97	9.77161
1163.86	16.2866
1166.75	26.5713
1169.64	16.5275
1172.54	16.4332
1175.43	11.8189
1178.32	37.2395
1181.21	27.2873
1184.11	30.247
1187	9.93509
1189.89	4.81488
1192.79	28.4146
1195.68	10.074
1198.57	24.2629
1201.46	22.511
1204.36	19.5579
1207.25	48.4312
1210.14	69.1139
1213.03	38.5762
1215.93	48.9378
1218.82	48.4779
1221.71	45.7172
1224.61	9.23154
1227.5	12.4716
1230.39	33.4747
1233.28	36.3125
1236.18	4.99896
1239.07	22.0669
1241.96	25.6577
1244.85	61.5101
1247.75	60.7323
1250.64	37.051
1253.53	65.4011
1256.42	30.6529
1259.32	29.2791
1262.21	23.038
1265.1	18.7228
1267.99	24.7731
1270.89	26.8466
1273.78	20.35
1276.67	20.8265
1279.57	1.59302
1282.46	32.4746
1285.35	10.8497
1288.24	21.0288
1291.14	4.1878
