Measurement: Raman, 785 nm, unoriented, Raman Data Processed
Mineral: Nagyagite
Rruff sample: R060865
Ideal chemistry: [Pb(Pb,Sb)S_2_][(Au,Te)]
Locality: Nagyog, Transylvania
Source: Michael Scott
Description: Black vitreous massive
Raman shift (cm-1)	intensity
171.185	0
174.078	48.3179
176.971	50.0752
179.863	59.5195
182.756	24.1331
185.649	38.6414
188.542	94.9983
191.434	78.5415
194.327	100.06
197.22	174.913
200.112	163.117
203.005	180.601
205.898	115.436
208.791	60.7043
211.683	43.0979
214.576	17.0012
217.469	33.1287
220.361	72.2551
223.254	63.6165
226.147	45.7219
229.039	108.969
231.932	127.22
234.825	248.528
237.718	315.928
240.61	274.394
243.503	324.25
246.396	208.018
249.288	244.791
252.181	224.018
255.074	166.309
257.966	136.334
260.859	150.572
263.752	106.048
266.645	113.359
269.537	88.4829
272.43	90.5051
275.323	80.0784
278.215	44.4348
281.108	90.1882
284.001	6.3269
286.894	11.2395
289.786	7.77564
292.679	6.40674
295.572	40.7214
298.464	116.696
301.357	135.396
304.25	231.896
307.142	278.292
310.035	281.051
312.928	273.517
315.82	253.383
318.713	281.822
321.606	178.543
324.499	169.938
327.391	165.694
330.284	146.011
333.177	117.815
336.069	88.5794
338.962	69.2969
341.855	107.288
344.748	130.972
347.64	109.859
350.533	117.75
353.426	105.529
356.318	88.5054
359.211	41.3425
362.104	28.0806
364.996	4.4458
367.889	2.27734
370.782	25.0432
373.675	12.991
376.567	57.0746
379.46	22.0118
382.353	18.2273
385.245	24.9211
388.138	9.31714
391.031	16.1277
393.923	22.7058
396.816	26.5222
399.709	49.9885
402.601	41.9701
405.494	19.8406
408.387	10.1742
411.28	59.6183
414.172	20.4355
417.065	39.0087
419.958	56.1375
422.85	46.0301
425.743	32.9096
428.636	42.1465
431.529	36.213
434.421	16.4719
437.314	53.8934
440.207	14.375
443.099	25.5653
445.992	37.0844
448.885	45.7842
451.777	35.735
454.67	4.58545
457.563	11.266
460.455	47.5774
463.348	31.9257
466.241	25.0337
469.134	15.053
472.026	21.2521
474.919	37.2863
477.812	14.6477
480.704	20.3064
483.597	42.3397
486.49	10.2424
489.382	25.7847
492.275	11.7562
495.168	23.6929
498.061	8.33582
500.953	26.1934
503.846	6.01843
506.739	34.3889
509.631	33.197
512.524	25.2473
515.417	17.8594
518.309	43.6603
521.202	67.4413
524.095	7.28284
526.988	35.6781
529.88	47.2168
532.773	2.37402
535.666	23.8038
538.558	65.955
541.451	77.1042
544.344	47.5029
547.236	32.0156
550.129	46.1281
553.022	39.9501
555.915	49.135
558.807	39.6692
561.7	41.7339
564.593	30.2436
567.485	12.5116
570.378	7.0404
573.271	35.559
576.163	19.0071
579.056	68.7538
581.949	75.2352
584.842	72.7222
587.734	48.7165
590.627	42.6952
593.52	24.6011
596.412	42.3781
599.305	37.1128
602.198	26.5724
605.091	44.838
607.983	32.5284
610.876	98.4039
613.769	30.0476
616.661	36.0304
619.554	7.45886
622.447	8.4939
625.339	44.9902
628.232	39.394
631.125	46.3922
634.018	85.4285
636.91	46.6558
639.803	68.6201
642.696	31.6541
645.588	41.0421
648.481	1.69849
651.374	29.2725
654.266	31.2801
657.159	39.4294
660.052	47.5471
662.944	25.175
665.837	7.06958
668.73	1.60889
671.623	74.3912
674.515	46.266
677.408	51.0507
680.301	29.6825
683.193	30.6388
686.086	55.2877
688.979	6.8075
691.871	11.3464
694.764	12.3912
697.657	24.3148
700.55	15.0906
703.442	45.1045
706.335	42.9371
709.228	17.9106
712.12	24.8243
715.013	32.1313
717.906	57.3818
720.798	35.7252
723.691	9.9541
726.584	8.94202
729.477	55.0887
732.369	31.5395
735.262	18.7573
738.155	47.9509
741.047	38.6936
743.94	63.0369
746.833	29.442
749.726	71.8544
752.618	62.5223
755.511	48.1193
758.404	48.3925
761.296	49.5153
764.189	21.0145
767.082	23.1822
769.974	7.66248
772.867	39.1797
775.76	58.4504
778.653	29.6809
781.545	33.7065
784.438	14.0447
787.331	49.1769
790.223	70.2262
793.116	35.5292
796.009	23.123
798.901	22.4459
801.794	6.62378
804.687	65.8345
807.58	9.26709
810.472	61.166
813.365	67.2412
816.258	30.4979
819.15	44.2728
822.043	40.307
824.936	55.009
827.828	0.530518
830.721	45.0773
833.614	27.3077
836.507	21.2402
839.399	24.1521
842.292	12.4419
845.185	38.9513
848.077	49.828
850.97	30.8226
853.863	5.01599
856.755	77.4805
859.648	43.4352
862.541	39.7877
865.434	60.3568
868.326	15.0314
871.219	31.1056
874.112	15.4385
877.004	29.0713
879.897	56.618
882.79	10.8352
885.683	24.656
888.575	7.04712
891.468	10.6373
894.361	26.4225
897.253	11.9911
900.146	2.5321
903.039	25.2395
905.931	39.236
908.824	11.756
911.717	22.0464
914.61	45.6586
917.502	20.1752
920.395	25.023
923.288	49.1168
926.18	49.2865
929.073	20.7166
931.966	29.953
934.858	45.233
937.751	59.3268
940.644	9.09839
943.537	50.2534
946.429	20.8782
949.322	52.3319
952.215	47.1372
955.107	14.4639
958	47.0356
960.893	27.3982
963.785	24.7466
966.678	25.9164
969.571	24.3013
972.463	30.1797
975.356	46.1934
978.249	71.7932
981.142	61.2488
984.034	73.9679
986.927	64.6068
989.82	21.2135
992.712	17.9303
995.605	34.2745
998.498	47.6739
1001.39	78.3528
1004.28	84.2349
1007.18	42.1571
1010.07	37.9119
1012.96	14.6061
1015.85	63.1938
1018.75	55.2555
1021.64	11.759
1024.53	4.61609
1027.42	10.855
1030.32	71.806
1033.21	17.7155
1036.1	48.8654
1039	103.886
1041.89	38.9074
1044.78	100.861
1047.67	65.5293
1050.57	85.3932
1053.46	69.001
1056.35	30.751
1059.24	17.3186
1062.14	29.5963
1065.03	57.813
1067.92	17.2614
1070.82	22.6874
1073.71	36.1072
1076.6	23.9459
1079.49	53.0219
1082.39	64.527
1085.28	12.8735
1088.17	19.6489
1091.06	28.2184
1093.96	44.8584
1096.85	21.773
1099.74	36.6448
1102.63	12.8016
1105.53	67.4469
1108.42	9.95373
1111.31	32.4962
1114.21	16.167
1117.1	26.7129
1119.99	22.9337
1122.88	30.0957
1125.78	19.1693
1128.67	4.48767
1131.56	6.52795
1134.45	12.2944
1137.35	29.252
1140.24	8.11401
1143.13	9.88599
1146.03	12.4507
1148.92	23.958
1151.81	31.4202
1154.7	27.8694
1157.6	20.0509
1160.49	54.7897
1163.38	4.08752
1166.27	22.5078
1169.17	76.3394
1172.06	12.1954
1174.95	11.6641
1177.85	12.2747
1180.74	56.5018
1183.63	42.9724
1186.52	27.2997
1189.42	56.8265
1192.31	74.5244
1195.2	63.8064
1198.09	61.9977
1200.99	51.1675
1203.88	92.8164
1206.77	3.38965
1209.66	37.0353
1212.56	58.0864
1215.45	24.3496
1218.34	97.7541
1221.24	49.296
1224.13	36.4891
1227.02	56.4525
1229.91	109.401
1232.81	75.1271
1235.7	41.4916
1238.59	21.6541
1241.48	41.0627
1244.38	73.8564
1247.27	63.4152
1250.16	55.3793
1253.06	42.6177
1255.95	59.7673
1258.84	67.21
1261.73	28.7236
1264.63	65.469
1267.52	0
