Measurement: Raman, 785 nm, unoriented, Raman Data Processed
Mineral: Nakauriite
Rruff sample: R060842
Ideal chemistry: Cu^2+^_8_(S^6+^O_4_)_4_(CO_3_)(OH)_6_48H_2_O
Locality: Gabbs, Nevada, USA
Source: Bob Jenkins
Description: Spray of blue fibers
Raman shift (cm-1)	intensity
210.237	0
213.13	19.0428
216.022	19.6099
218.915	5.98261
221.808	20.7586
224.7	3.83069
227.593	33.0027
230.486	9.03293
233.379	12.1856
236.271	26.1106
239.164	7.78656
242.057	15.2793
244.949	8.00488
247.842	22.2504
250.735	6.84976
253.627	1.68036
256.52	30.8978
259.413	29.1977
262.305	37.9814
265.198	39.4039
268.091	50.275
270.984	47.043
273.876	44.1866
276.769	48.032
279.662	52.8696
282.554	53.761
285.447	42.1086
288.34	46.1677
291.233	59.0152
294.125	75.2967
297.018	90.0759
299.911	116.999
302.803	107.715
305.696	107.337
308.589	108.891
311.481	119.314
314.374	100.052
317.267	108.878
320.159	162.205
323.052	203.891
325.945	270.01
328.838	277.852
331.73	260.124
334.623	179.251
337.516	127.304
340.408	92.1592
343.301	70.4028
346.194	28.1845
349.087	47.2384
351.979	28.602
354.872	27.6381
357.765	1.17978
360.657	4.45538
363.55	2.77112
366.443	0.89502
369.335	0.082886
372.228	1.22388
375.121	4.91248
378.014	8.67621
380.906	3.16083
383.799	2.22064
386.692	9.68646
389.584	9.56683
392.477	29.0601
395.37	44.7501
398.262	73.6503
401.155	67.3181
404.048	82.3749
406.941	77.2418
409.833	84.786
412.726	142.168
415.619	159.167
418.511	207.652
421.404	216.582
424.297	256.543
427.19	266.416
430.082	300.517
432.975	263.005
435.868	247.543
438.76	193.108
441.653	203.488
444.546	163.167
447.438	121.325
450.331	129.611
453.224	121.769
456.116	112.64
459.009	84.3294
461.902	100.636
464.795	81.8184
467.687	77.8547
470.58	75.4728
473.473	76.7321
476.365	74.4114
479.258	110.454
482.151	164.625
485.043	235.022
487.936	297.372
490.829	343.227
493.722	398.673
496.614	382.962
499.507	324.603
502.4	246.849
505.292	194.067
508.185	121.953
511.078	94.4095
513.971	61.2396
516.863	39.8118
519.756	32.1774
522.649	17.6698
525.541	1.92538
528.434	22.3479
531.327	10.3842
534.219	10.9847
537.112	2.56256
540.005	7.96991
542.898	9.15854
545.79	12.4356
548.683	18.3073
551.576	28.0538
554.468	1.6023
557.361	16.4533
560.254	16.6012
563.146	21.8693
566.039	6.33932
568.932	11.4994
571.824	17.6787
574.717	16.8946
577.61	19.9455
580.503	29.1325
583.395	4.80481
586.288	12.019
589.181	36.4705
592.073	34.2219
594.966	16.7074
597.859	19.1043
600.751	27.7161
603.644	7.19629
606.537	18.2545
609.43	40.6665
612.322	15.7058
615.215	22.8468
618.108	14.0039
621	14.2907
623.893	26.6546
626.786	21.5874
629.678	12.3651
632.571	6.06604
635.464	26.4417
638.357	15.9303
641.249	18.2779
644.142	5.94583
647.035	16.9642
649.927	31.9012
652.82	12.7288
655.713	6.56754
658.606	6.94278
661.498	13.4748
664.391	22.2164
667.284	19.8147
670.176	24.0168
673.069	24.6049
675.962	42.6421
678.854	26.0073
681.747	8.25589
684.64	24.2386
687.533	16.7781
690.425	31.6704
693.318	29.2101
696.211	32.5088
699.103	41.3472
701.996	20.1258
704.889	0.143219
707.781	11.6592
710.674	1.68356
713.567	23.7791
716.46	30.9552
719.352	29.0245
722.245	31.4524
725.138	32.7801
728.03	12.9984
730.923	1.54797
733.816	14.8806
736.708	6.95309
739.601	13.6398
742.494	24.93
745.386	6.69281
748.279	21.149
751.172	47.835
754.065	36.8149
756.957	31.539
759.85	29.027
762.743	39.4519
765.635	15.3508
768.528	14.9317
771.421	32.6376
774.313	7.67053
777.206	7.29608
780.099	12.2859
782.992	27.3302
785.884	21.6828
788.777	19.7235
791.67	49.6932
794.562	36.9171
797.455	11.829
800.348	17.2631
803.24	16.3193
806.133	34.7217
809.026	29.0879
811.919	20.2129
814.811	26.3086
817.704	36.7643
820.597	51.7757
823.489	27.3365
826.382	28.4946
829.275	39.5713
832.168	12.7393
835.06	34.4539
837.953	26.394
840.846	26.5629
843.738	22.5295
846.631	31.3866
849.524	30.4579
852.416	22.4381
855.309	39.3702
858.202	11.3599
861.095	18.2121
863.987	25.1026
866.88	24.1772
869.773	2.19897
872.665	10.8784
875.558	14.8609
878.451	23.1198
881.343	24.3156
884.236	3.99817
887.129	10.4786
890.021	31.144
892.914	13.3667
895.807	33.8278
898.7	4.05673
901.592	11.5045
904.485	14.459
907.378	9.78641
910.27	19.2333
913.163	26.9979
916.056	1.77859
918.949	35.6444
921.841	9.14713
924.734	2.58853
927.627	18.647
930.519	11.3675
933.412	32.5069
936.305	10.3647
939.197	31.7797
942.09	2.13293
944.983	25.9159
947.876	4.8699
950.768	24.3786
953.661	22.1746
956.554	8.40668
959.446	14.8527
962.339	18.7466
965.232	26.9592
968.125	25.2792
971.017	25.3266
973.91	27.3164
976.803	22.9327
979.695	3.92462
982.588	15.8031
985.481	20.6848
988.373	1.71744
991.266	11.4562
994.159	4.04736
997.052	0.021332
999.944	6.91385
1002.84	12.9034
1005.73	22.8853
1008.62	17.1087
1011.51	16.7529
1014.41	21.7205
1017.3	29.5753
1020.19	18.7741
1023.09	14.5929
1025.98	12.3322
1028.87	16.0534
1031.76	25.4976
1034.66	24.5436
1037.55	22.6851
1040.44	19.9885
1043.34	31.2623
1046.23	36.418
1049.12	25.3274
1052.01	49.5108
1054.91	43.3342
1057.8	41.3785
1060.69	61.9581
1063.58	63.9554
1066.48	106.155
1069.37	134.46
1072.26	209.938
1075.15	330.642
1078.05	357.336
1080.94	245.079
1083.83	108.797
1086.72	78.7724
1089.62	19.0196
1092.51	39.1665
1095.4	23.3485
1098.3	10.7619
1101.19	0.70932
1104.08	23.6081
1106.97	7.40787
1109.87	12.7057
1112.76	16.6653
1115.65	18.7997
1118.55	13.5124
1121.44	7.9729
1124.33	0.834045
1127.22	8.66428
1130.12	15.8503
1133.01	9.71838
1135.9	21.1258
1138.79	3.81406
1141.69	21.9042
1144.58	2.92612
1147.47	8.47104
1150.37	30.883
1153.26	32.3282
1156.15	26.4025
1159.04	21.4403
1161.93	21.6032
1164.83	22.2929
1167.72	13.1336
1170.61	22.314
1173.51	10.5283
1176.4	18.3635
1179.29	26.7881
1182.18	23.4214
1185.08	18.4252
1187.97	18.3397
1190.86	42.9585
1193.76	35.3408
1196.65	36.2387
1199.54	30.3547
1202.43	11.1334
1205.33	12.402
1208.22	3.68735
1211.11	35.1285
1214	30.2225
1216.9	47.2826
1219.79	39.7434
1222.68	4.62988
1225.58	48.4114
1228.47	47.0667
1231.36	30.4337
1234.25	47.1023
1237.15	14.066
1240.04	10.1308
1242.93	30.4916
1245.82	42.8583
1248.72	50.1713
1251.61	44.8007
1254.5	41.2888
1257.39	36.2433
1260.29	9.70621
1263.18	17.6808
1266.07	40.1675
1268.96	0.793732
1271.86	0
