Measurement: Raman, 785 nm, unoriented, Raman Data Processed
Mineral: Nakauriite
Rruff sample: R060976
Ideal chemistry: Cu^2+^_8_(S^6+^O_4_)_4_(CO_3_)(OH)_6_48H_2_O
Locality: Nakauri mine, Aichi Prefecture, Japan
Source: Michael Scott
Description: Deep sky blue to white acicular crystals in serpentinite.
Raman shift (cm-1)	intensity
121.046	0
123.939	44.7562
126.831	271.294
129.724	674.614
132.617	840.67
135.509	630.816
138.402	369.435
141.295	337.929
144.188	534.033
147.08	659.17
149.973	815.548
152.866	751.291
155.758	655.259
158.651	593.47
161.544	630.98
164.436	619.238
167.329	529.99
170.222	476.466
173.114	392.258
176.007	349.344
178.9	296.858
181.793	225.166
184.685	222.934
187.578	188.996
190.471	179.652
193.363	124.138
196.256	126.642
199.149	106.019
202.042	127.128
204.934	106.701
207.827	76.1619
210.72	32.2037
213.612	30.0712
216.505	43.4714
219.398	26.7525
222.29	22.8059
225.183	10.5832
228.076	9.43903
230.969	22.5881
233.861	24.8464
236.754	41.4209
239.647	12.9513
242.539	16.5674
245.432	8.09857
248.325	5.07074
251.217	6.79938
254.11	10.324
257.003	9.3313
259.895	81.882
262.788	63.51
265.681	108.286
268.574	108.553
271.466	97.299
274.359	87.5186
277.252	87.5558
280.144	66.9299
283.037	85.5599
285.93	76.3233
288.822	55.9773
291.715	73.3764
294.608	78.6318
297.5	108.455
300.393	90.815
303.286	57.3157
306.179	82.4445
309.071	87.8015
311.964	125.222
314.857	125.752
317.749	134.577
320.642	166.841
323.535	206.92
326.428	210.532
329.32	204.784
332.213	184.867
335.106	126.927
337.998	128.217
340.891	52.2936
343.784	34.178
346.676	38.2736
349.569	7.71893
352.462	9.68146
355.354	33.3766
358.247	3.71722
361.14	22.1829
364.033	1.81866
366.925	3.43085
369.818	16.9898
372.711	1.36902
375.603	17.3581
378.496	37.5947
381.389	26.4648
384.281	47.6039
387.174	63.1907
390.067	60.5324
392.96	126.321
395.852	126.606
398.745	144.574
401.638	185.843
404.53	224.179
407.423	243.561
410.316	351.795
413.209	362.002
416.101	400.423
418.994	450.178
421.887	524.136
424.779	546.019
427.672	496.097
430.565	476.533
433.457	472.633
436.35	431.014
439.243	376.533
442.135	377.472
445.028	352.392
447.921	363.533
450.813	335.141
453.706	313.77
456.599	253.262
459.492	237.755
462.384	262.393
465.277	252.755
468.17	270.65
471.062	287.973
473.955	332.21
476.848	382.719
479.74	467.849
482.633	596.075
485.526	730.632
488.419	811.428
491.311	897.432
494.204	842.989
497.097	786.341
499.989	624.091
502.882	452.63
505.775	335.058
508.668	214.118
511.56	141.895
514.453	145.326
517.346	70.7125
520.238	89.6423
523.131	20.4263
526.024	0.361389
528.916	1.63837
531.809	11.6981
534.702	34.423
537.595	8.15918
540.487	4.9292
543.38	35.5817
546.273	6.37512
549.165	2.52954
552.058	1.74005
554.951	5.85577
557.843	28.876
560.736	25.7328
563.629	28.9896
566.521	4.8277
569.414	21.2907
572.307	2.27991
575.2	14.8785
578.092	41.1576
580.985	44.407
583.878	44.0905
586.77	59.6444
589.663	16.5495
592.556	28.1945
595.448	3.33612
598.341	47.7878
601.234	12.6223
604.126	6.45209
607.019	32.3502
609.912	33.4268
612.805	45.0153
615.697	55.5814
618.59	49.8341
621.483	23.8676
624.375	52.1779
627.268	52.6309
630.161	35.4415
633.053	37.7205
635.946	35.9672
638.839	17.6949
641.732	41.1177
644.624	21.6922
647.517	23.2687
650.41	35.5788
653.302	37.4619
656.195	32.754
659.088	39.1545
661.981	32.6836
664.873	35.5428
667.766	29.6517
670.659	43.1514
673.551	7.86822
676.444	28.5401
679.337	47.4993
682.229	14.4581
685.122	38.2493
688.015	35.7601
690.908	39.3587
693.8	87.5909
696.693	69.0597
699.586	41.0206
702.478	12.1495
705.371	32.806
708.264	28.5446
711.156	49.852
714.049	17.7118
716.942	14.0509
719.835	6.77374
722.727	33.0737
725.62	0.755676
728.513	52.2308
731.405	19.2474
734.298	36.7126
737.191	14.9031
740.083	38.1452
742.976	26.797
745.869	19.3181
748.761	26.7524
751.654	20.8892
754.547	48.2987
757.44	37.4774
760.332	44.825
763.225	36.8605
766.118	14.9604
769.01	0.597656
771.903	26.8575
774.796	40.1384
777.688	29.8026
780.581	37.2216
783.474	46.7667
786.366	28.0569
789.259	33.3881
792.152	49.3571
795.045	49.2935
797.937	43.8795
800.83	39.3958
803.723	32.1176
806.615	11.6666
809.508	50.1498
812.401	64.4796
815.293	38.5825
818.186	84.2549
821.079	60.2521
823.972	63.3694
826.864	62.4988
829.757	89.555
832.65	69.7969
835.542	96.1802
838.435	38.1179
841.328	54.1132
844.221	50.3477
847.113	71.0597
850.006	50.0843
852.899	23.2449
855.791	74.3885
858.684	36.3674
861.577	38.1698
864.469	42.9836
867.362	38.2539
870.255	22.7315
873.148	31.8781
876.04	40.1783
878.933	29.9812
881.826	40.273
884.718	46.2298
887.611	9.06128
890.504	33.0178
893.396	42.698
896.289	19.3595
899.182	11.7896
902.074	34.6808
904.967	45.7039
907.86	10.8134
910.753	50.872
913.645	31.2171
916.538	0.081604
919.431	15.6657
922.323	6.59137
925.216	30.1656
928.109	11.6528
931.001	28.7125
933.894	33.9903
936.787	38.028
939.68	43.8742
942.572	24.6362
945.465	47.3021
948.358	28.1105
951.25	29.4037
954.143	0.444092
957.036	36.2045
959.928	5.29309
962.821	23.8087
965.714	22.5064
968.606	37.3805
971.499	37.7764
974.392	41.1547
977.285	39.019
980.177	27.8686
983.07	24.3028
985.963	59.9116
988.855	42.6488
991.748	39.6641
994.641	33.7493
997.534	69.974
1000.43	47.9053
1003.32	26.1373
1006.21	15.2977
1009.1	25.3132
1012	1.0166
1014.89	32.6577
1017.78	27.533
1020.67	13.8722
1023.57	11.256
1026.46	23.0928
1029.35	39.7028
1032.25	23.6561
1035.14	41.3764
1038.03	33.1431
1040.92	26.3405
1043.82	27.89
1046.71	27.0171
1049.6	88.8154
1052.49	101.807
1055.39	95.098
1058.28	127.272
1061.17	138.836
1064.07	205.107
1066.96	320.777
1069.85	494.666
1072.74	746.897
1075.64	817.149
1078.53	632.427
1081.42	339.77
1084.31	182.152
1087.21	134.179
1090.1	78.1395
1092.99	32.9815
1095.88	53.9111
1098.78	35.9748
1101.67	0.747803
1104.56	30.9073
1107.46	29.5612
1110.35	33.266
1113.24	24.941
1116.13	11.6085
1119.03	0.938904
1121.92	30.501
1124.81	25.4212
1127.7	3.87299
1130.6	28.9153
1133.49	13.3158
1136.38	49.0001
1139.28	21.6002
1142.17	6.3656
1145.06	21.0963
1147.95	44.068
1150.85	7.42908
1153.74	3.82007
1156.63	32.1036
1159.53	26.5348
1162.42	18.4763
1165.31	29.2861
1168.2	34.7398
1171.1	42.1236
1173.99	20.333
1176.88	24.4465
1179.77	1.28235
1182.67	19.0852
1185.56	49.3992
1188.45	40.5777
1191.34	14.6871
1194.24	20.9395
1197.13	16.8423
1200.02	3.80457
1202.91	11.7637
1205.81	22.6215
1208.7	25.1932
1211.59	23.0674
1214.49	45.2645
1217.38	22.9322
1220.27	20.8459
1223.16	31.822
1226.06	14.6913
1228.95	10.4938
1231.84	8.50537
1234.73	24.7425
1237.63	2.17688
1240.52	28.9725
1243.41	26.2885
1246.31	37.7073
1249.2	20.3865
1252.09	27.2668
1254.98	32.9987
1257.88	12.6325
1260.77	48.4868
1263.66	0
