Measurement: Raman, 785 nm, unoriented, Raman Data Processed
Mineral: Nalivkinite
Rruff sample: R070219
Ideal chemistry: Li_2_NaFe^2+^_7_Ti^4+^_2_(Si_4_O_12_)_2_O_2_(OH)_4_F(H_2_O)_2_
Locality: Dara-i-Pioz (Darai-Piez) Glacier, Alayskiy (Alai; Alay) Range, South Tien-Shan Mts, Garm region, Districts of the Republican Subordination, Tajikistan
Source: Michael Scott
Description: Light brown platy crystals
Raman shift (cm-1)	intensity
218.889	0
221.782	160.324
224.674	81.6797
227.567	47.7656
230.46	48.4297
233.353	28.3594
236.245	79.1016
239.138	371.797
242.031	382.938
244.923	586.91
247.816	451.805
250.709	525.203
253.601	564.914
256.494	492.695
259.387	753.398
262.28	598.043
265.172	687.324
268.065	289.582
270.958	124.285
273.85	63.582
276.743	3.98438
279.636	6.37109
282.529	90.2109
285.421	420.25
288.314	502.254
291.207	315.133
294.099	389.172
296.992	150.688
299.885	415.953
302.777	388.769
305.67	480.777
308.563	685.195
311.455	824.973
314.348	509.793
317.241	624.625
320.134	504.754
323.026	456.383
325.919	688.344
328.812	698.055
331.704	876.539
334.597	552.555
337.49	577.988
340.382	475.562
343.275	392.32
346.168	535.312
349.061	527.644
351.953	790.609
354.846	888.906
357.739	617.043
360.631	504.574
363.524	327.746
366.417	87.8164
369.31	182.805
372.202	313.574
375.095	475.609
377.988	274.82
380.88	80.6172
383.773	29.1836
386.666	24.7461
389.558	78.1211
392.451	218.961
395.344	173.305
398.236	121.508
401.129	98.7617
404.022	122.91
406.915	45.8555
409.807	23.7188
412.7	101.148
415.593	385.277
418.485	392.32
421.378	421.094
424.271	507.508
427.163	325.59
430.056	531.195
432.949	541.266
435.842	597.59
438.734	565.602
441.627	766.66
444.52	765.656
447.412	652.371
450.305	926.539
453.198	1190.02
456.091	1390.98
458.983	1884.12
461.876	2552.77
464.769	2748.03
467.661	2207.17
470.554	1351.93
473.447	901.988
476.339	670.66
479.232	440.16
482.125	295.387
485.017	198.84
487.91	72.8867
490.803	42.7305
493.696	134.488
496.588	88.0352
499.481	10.3945
502.374	40.1797
505.266	205.949
508.159	471.141
511.052	76.8477
513.944	238.465
516.837	134.434
519.73	118.559
522.623	44.6758
525.515	150.606
528.408	136.258
531.301	209.961
534.193	386.008
537.086	392.699
539.979	462.66
542.871	406.984
545.764	503.75
548.657	596.551
551.55	606.824
554.442	674.523
557.335	1031.3
560.228	1116.79
563.12	1252.1
566.013	1259.38
568.906	1176.97
571.798	961.559
574.691	965.688
577.584	875.328
580.477	747.945
583.369	778.305
586.262	611.859
589.155	560.394
592.047	245.961
594.94	291.922
597.833	293.91
600.726	293.723
603.618	420.133
606.511	12.1641
609.404	184.312
612.296	88.5859
615.189	55.4727
618.082	49.9219
620.974	59.2344
623.867	46.0586
626.76	103.973
629.653	210.688
632.545	191.484
635.438	100.652
638.331	173.731
641.223	448.422
644.116	493.691
647.009	739.106
649.901	1065.18
652.794	1067.17
655.687	1400.73
658.58	1279.88
661.472	1089.11
664.365	674.348
667.258	578.449
670.15	420.973
673.043	501.602
675.936	519.121
678.828	287.309
681.721	320.086
684.614	392.551
687.506	398.562
690.399	358.227
693.292	319.418
696.185	528.856
699.077	418.43
701.97	382.965
704.863	378.738
707.755	510.164
710.648	332.898
713.541	343.148
716.433	404.144
719.326	435.207
722.219	448.582
725.112	391.738
728.004	357.266
730.897	318.824
733.79	398.457
736.682	223.387
739.575	100.273
742.468	215.449
745.361	188.836
748.253	114.531
751.146	28.043
754.039	44.7383
756.931	68.4844
759.824	52.5547
762.717	91.9727
765.609	19.168
768.502	124.883
771.395	96.6875
774.288	109.922
777.18	111.125
780.073	277.887
782.966	295.316
785.858	378.887
788.751	372.144
791.644	391.848
794.536	348.551
797.429	401.152
800.322	474.305
803.215	390.519
806.107	416.637
809	344.656
811.893	447.394
814.785	327.91
817.678	184.465
820.571	203.473
823.463	274.988
826.356	263.582
829.249	219.418
832.141	78.5
835.034	44.5977
837.927	71.4727
840.82	1.18359
843.712	124.25
846.605	5.19531
849.498	6.51562
852.39	21.0117
855.283	11.6055
858.176	132.801
861.068	42.7383
863.961	190.5
866.854	168.315
869.747	367.668
872.639	327.377
875.532	388.555
878.425	583.41
881.317	709.094
884.21	748.955
887.103	1050.68
889.995	1046.04
892.888	1217.38
895.781	1174.22
898.674	1488.24
901.566	1564.25
904.459	1615.64
907.352	1732.74
910.244	1591.06
913.137	1727.52
916.03	1539.25
918.923	1577.59
921.815	1365
924.708	1219.23
927.601	1229.16
930.493	1087.81
933.386	997.047
936.279	901.016
939.171	816.014
942.064	778.033
944.957	474.227
947.85	484.357
950.742	337.971
953.635	229.615
956.528	325.623
959.42	218.92
962.313	113.484
965.206	33.0039
968.098	94.6152
970.991	27.877
973.884	51.0098
976.777	44.3203
979.669	162.18
982.562	197.199
985.455	71.3926
988.347	80.5488
991.24	17.1328
994.133	122.371
997.025	98.0176
999.918	144.029
1002.81	173.728
1005.7	193.359
1008.6	311.897
1011.49	279.57
1014.38	343.541
1017.27	321.49
1020.17	375.143
1023.06	379.269
1025.95	357.094
1028.85	318.203
1031.74	312.59
1034.63	350.1
1037.52	251.725
1040.42	271.918
1043.31	279.75
1046.2	311.842
1049.09	195.951
1051.99	217.414
1054.88	226.195
1057.77	194.602
1060.66	102.537
1063.56	22.377
1066.45	71.3691
1069.34	89.9121
1072.24	1.42383
1075.13	3.72461
1078.02	110.441
1080.91	67.5703
1083.81	17.0117
1086.7	78.5137
1089.59	40.6191
1092.48	60.25
1095.38	70.2344
1098.27	113.498
1101.16	100.289
1104.06	78.4082
1106.95	125.051
1109.84	92.2812
1112.73	113.916
1115.63	234.893
1118.52	119.242
1121.41	256.147
1124.3	340.465
1127.2	254.68
1130.09	320.205
1132.98	256.412
1135.88	392.17
1138.77	238.621
1141.66	281.252
1144.55	283.463
1147.45	257.693
1150.34	313.902
1153.23	227.506
1156.12	269.023
1159.02	271.373
1161.91	263.102
1164.8	116.106
1167.69	155.293
1170.59	240.242
1173.48	283.996
1176.37	135.131
1179.27	131.246
1182.16	162.859
1185.05	64.0078
1187.94	148.711
1190.84	26.0957
1193.73	81.5684
1196.62	18.7324
1199.51	13.8945
1202.41	33.627
1205.3	111.967
1208.19	31.8926
1211.09	161.59
1213.98	12.0703
1216.87	82.2305
1219.76	155.477
1222.66	105.293
1225.55	65.4609
1228.44	95.584
