Measurement: Raman, 532 nm, unoriented, Raman Data Processed
Mineral: Nalivkinite
Rruff sample: R070219
Ideal chemistry: Li_2_NaFe^2+^_7_Ti^4+^_2_(Si_4_O_12_)_2_O_2_(OH)_4_F(H_2_O)_2_
Locality: Dara-i-Pioz (Darai-Piez) Glacier, Alayskiy (Alai; Alay) Range, South Tien-Shan Mts, Garm region, Districts of the Republican Subordination, Tajikistan
Source: Michael Scott
Description: Light brown platy crystals
Raman shift (cm-1)	intensity
197.391	0
200.284	68.6035
203.177	3.38086
206.07	176.166
208.962	120.617
211.855	70.8418
214.748	78.9004
217.64	38.6348
220.533	158.705
223.426	174.789
226.318	190.955
229.211	144.719
232.104	292.07
234.996	161.182
237.889	175.06
240.782	201.51
243.675	285.762
246.567	163.375
249.46	198.08
252.353	210.906
255.245	328.746
258.138	147.988
261.031	279.725
263.923	194.129
266.816	178.728
269.709	120.67
272.602	153.535
275.494	102.881
278.387	40.5508
281.28	207.486
284.173	69.375
287.065	78.0664
289.958	101.643
292.851	99.3398
295.743	160.828
298.636	207.24
301.529	110.207
304.421	88.7852
307.314	192.432
310.207	169.303
313.099	192.711
315.992	139.67
318.885	154.211
321.778	15.1895
324.67	114.475
327.563	35.2793
330.456	185.549
333.348	176.787
336.241	39.3262
339.134	121.648
342.026	113.672
344.919	153.887
347.812	112.328
350.705	26.8574
353.597	152.027
356.49	104.994
359.383	107.275
362.275	24.2031
365.168	106.744
368.061	30.9258
370.954	122.606
373.846	89.7383
376.739	77.0742
379.632	137.731
382.524	136.898
385.417	179.039
388.31	134.047
391.202	129.731
394.095	55.9219
396.988	13.7891
399.88	125.75
402.773	20.7305
405.666	149.457
408.559	88.5977
411.451	14.9414
414.344	184.906
417.237	16.2617
420.129	164.473
423.022	123.289
425.915	235.098
428.808	230.519
431.7	161.16
434.593	146.797
437.486	98.4102
440.378	78.9219
443.271	185.758
446.164	190.094
449.056	272.664
451.949	399.91
454.842	637.211
457.735	731.16
460.627	973.356
463.52	1137.51
466.413	971.742
469.305	669.676
472.198	325.277
475.091	305.066
477.983	184.301
480.876	260.195
483.769	100.91
486.661	52.1797
489.554	79.9961
492.447	162.133
495.34	118.992
498.232	0.695313
501.125	172.418
504.018	211.754
506.911	106.699
509.803	150.75
512.696	78.0938
515.589	55.3047
518.481	51.8281
521.374	280.262
524.267	52.8203
527.159	180.062
530.052	17.9219
532.945	152.156
535.837	165.527
538.73	63.3555
541.623	79.8555
544.516	103.754
547.408	193.574
550.301	152.992
553.194	116.148
556.086	212.543
558.979	358.137
561.872	335.32
564.764	317.988
567.657	220.598
570.55	237.32
573.443	111.938
576.335	243.703
579.228	60.043
582.121	208.445
585.013	50.6367
587.906	226.578
590.799	6.96484
593.692	0.875
596.584	108.883
599.477	2.50391
602.37	19.6484
605.262	104.984
608.155	70.082
611.048	44.3359
613.94	44.6562
616.833	8.44141
619.726	101.5
622.619	6.48828
625.511	111.195
628.404	110.43
631.297	220.945
634.189	178.594
637.082	65.9922
639.975	239.348
642.867	369.254
645.76	438.098
648.653	477.184
651.545	561.742
654.438	522.074
657.331	373.828
660.224	528.121
663.116	334.098
666.009	287.535
668.902	206.215
671.794	256.18
674.687	221.297
677.58	370.711
680.472	135.387
683.365	150.793
686.258	192.223
689.151	164.508
692.043	232.301
694.936	95.3203
697.829	189.824
700.721	266.91
703.614	187.922
706.507	291.016
709.399	75.0508
712.292	150.512
715.185	255.922
718.078	290.809
720.97	230.898
723.863	318.859
726.756	181.828
729.648	158.805
732.541	238.34
735.434	172.906
738.327	140.902
741.219	318.664
744.112	59.5469
747.005	100.102
749.897	196.66
752.79	172.859
755.683	189.75
758.576	238.18
761.468	18.4727
764.361	104.621
767.254	15.6992
770.146	178.352
773.039	156.359
775.932	100.945
778.824	127.269
781.717	297.566
784.61	261.219
787.503	182.438
790.395	43.4727
793.288	193.512
796.181	314.754
799.073	200.445
801.966	70.207
804.859	110.422
807.751	214.32
810.644	219.039
813.537	342.234
816.429	261.383
819.322	238.461
822.215	227.09
825.108	17.3398
828	130.555
830.893	239.094
833.786	59.4297
836.678	159.707
839.571	44.2773
842.464	34.3125
845.356	183.215
848.249	48.3516
851.142	39.6367
854.035	5.29297
856.927	99.9727
859.82	46.7852
862.713	164.035
865.605	105.773
868.498	254.441
871.391	211.273
874.284	137.305
877.176	191.688
880.069	164.305
882.962	174.078
885.854	165.016
888.747	453.379
891.64	230.809
894.533	329.727
897.425	530.434
900.318	611.664
903.211	595.91
906.103	609.773
908.996	460.555
911.889	595.859
914.781	447.144
917.674	420.625
920.567	437.023
923.46	380.871
926.352	398.668
929.245	316.016
932.138	345.516
935.03	245.535
937.923	172.285
940.816	200.789
943.708	152.156
946.601	259.43
949.494	152.215
952.386	198.984
955.279	190.231
958.172	87
961.065	121.957
963.957	36.668
966.85	67.1406
969.743	21.25
972.635	63.1641
975.528	61.207
978.421	105.336
981.313	42.5625
984.206	109.59
987.099	266.082
989.992	98.6484
992.884	279.238
995.777	14.0781
998.67	67.7031
1001.56	117.555
1004.46	198.176
1007.35	56.9883
1010.24	100.266
1013.13	70.9727
1016.03	178.117
1018.92	395.41
1021.81	208.332
1024.7	158.168
1027.6	160.559
1030.49	155.297
1033.38	191.055
1036.28	59.7148
1039.17	147.281
1042.06	186.688
1044.95	136.434
1047.85	145.613
1050.74	28.8164
1053.63	128.473
1056.52	179.098
1059.42	83.5703
1062.31	30.1289
1065.2	74.7891
1068.09	196.082
1070.99	163.109
1073.88	69.418
1076.77	148.719
1079.66	43.9258
1082.56	20.707
1085.45	202.398
1088.34	208.391
1091.24	8.3125
1094.13	303.086
1097.02	117.055
1099.91	77.3828
1102.81	150.324
1105.7	298.559
1108.59	265.578
1111.48	170.719
1114.38	213.027
1117.27	95.6992
1120.16	346.769
1123.06	187.32
1125.95	324.414
1128.84	231.812
1131.73	271.5
1134.63	345.086
1137.52	155.137
1140.41	251.336
1143.31	150.504
1146.2	320.336
1149.09	356.504
1151.98	369.773
1154.88	103.723
1157.77	252.461
1160.66	246.387
1163.55	53.9961
1166.45	105.438
1169.34	223.738
1172.23	86.0625
1175.12	103.973
1178.02	276.258
1180.91	169.016
1183.8	47.8203
1186.69	100
1189.59	130.594
1192.48	194.656
1195.37	220.5
1198.27	1.67578
1201.16	269.758
1204.05	118.691
1206.94	177.379
1209.84	200.684
1212.73	182.832
1215.62	27.7812
1218.52	155.656
1221.41	233.254
1224.3	139.797
1227.19	176.934
1230.09	206.527
1232.98	56.3438
1235.87	243.82
1238.76	134.727
1241.66	179.531
1244.55	98.25
1247.44	134.34
1250.34	156.516
1253.23	102.141
1256.12	206.445
1259.01	108.324
1261.91	256.699
1264.8	191.484
1267.69	155.574
1270.58	92.6602
1273.48	161.613
1276.37	252.832
1279.26	179.805
1282.15	189.586
1285.05	296.789
1287.94	26.9922
1290.83	11.8398
1293.72	159.988
1296.62	91.9688
