Measurement: Raman, 780 nm, unoriented, Raman Data Processed
Mineral: Nambulite
Rruff sample: R060616
Ideal chemistry: LiMn^2+^_4_Si_5_O_14_(OH)
Locality: Kombat mine, Kombat, Grootfontein District, Otjozondjupa Region, Namibia
Source: Michael Scott
Description: Pink colored fragment of a single crystal associated with gypsum
Raman shift (cm-1)	intensity
121.943	0
125.318	1.15149
128.693	2.36499
132.067	10.1019
135.442	9.84229
138.817	2.22168
142.192	5.95276
145.567	9.71277
148.941	18.1483
152.316	32.3656
155.691	20.7601
159.066	1.60998
162.441	4.00342
165.816	11.9027
169.19	4.98132
172.565	8.91223
175.94	11.2685
179.315	12.1614
182.69	28.7329
186.065	31.5094
189.439	33.9707
192.814	10.2181
196.189	0.312012
199.564	2.69592
202.939	3.44665
206.313	8.026
209.688	8.09851
213.063	14.7076
216.438	23.3804
219.813	27.7046
223.188	28.542
226.562	38.6581
229.937	13.46
233.312	17.2773
236.687	17.4751
240.061	5.5675
243.436	4.30225
246.811	2.79114
250.186	10.743
253.561	2.65369
256.936	4.849
260.31	32.0267
263.685	53.3109
267.06	59.4463
270.435	59.2776
273.81	42.9286
277.185	28.0394
280.559	30.3574
283.934	32.5743
287.309	39.5325
290.684	72.614
294.059	69.6182
297.433	56.109
300.808	44.3235
304.183	35.314
307.558	29.7738
310.933	12.0967
314.308	17.8677
317.682	7.89502
321.057	21.0637
324.432	32.2977
327.807	36.0625
331.182	26.5463
334.556	22.1039
337.931	16.087
341.306	11.5514
344.681	4.05896
348.056	8.73669
351.43	1.90295
354.805	5.65723
358.18	6.8346
361.555	4.20898
364.93	11.9794
368.305	32.3142
371.679	45.4403
375.054	36.0037
378.429	31.0376
381.804	25.3934
385.179	9.78882
388.553	6.00891
391.928	7.80151
395.303	4.77759
398.678	4.19885
402.053	23.3541
405.427	20.7483
408.802	25.9445
412.177	33.6448
415.552	24.5463
418.927	17.7415
422.301	17.9045
425.676	4.57727
429.051	3.23279
432.426	9.62915
435.801	0.095459
439.176	3.17163
442.55	3.60303
445.925	3.8186
449.3	4.36853
452.675	2.53821
456.05	6.69763
459.425	15.9551
462.799	13.8436
466.174	4.30823
469.549	15.7759
472.924	21.1959
476.299	17.7133
479.673	17.17
483.048	30.5627
486.423	28.8185
489.798	27.2656
493.173	26.9324
496.547	31.4873
499.922	35.7694
503.297	31.8829
506.672	29.0409
510.047	26.7609
513.422	19.881
516.796	19.1043
520.171	16.7801
523.546	16.2719
526.921	29.8044
530.296	39.8975
533.67	42.33
537.045	31.4244
540.42	23.0859
543.795	15.7328
547.17	14.969
550.544	9.70496
553.919	8.77759
557.294	3.87952
560.669	7.72436
564.044	1.02832
567.418	2.58777
570.793	0.225098
574.168	4.45252
577.543	5.74036
580.918	13.5952
584.293	1.59473
587.667	2.34167
591.042	6.55298
594.417	3.43164
597.792	8.44385
601.167	20.0679
604.542	16.142
607.916	17.844
611.291	26.3971
614.666	22.0301
618.041	15.4874
621.416	14.7507
624.79	25.3153
628.165	17.5576
631.54	20.8648
634.915	33.6222
638.29	38.7556
641.664	58.0358
645.039	79.6755
648.414	125.769
651.789	188.764
655.164	303.027
658.538	477.096
661.913	620.996
665.288	601.001
668.663	441.494
672.038	276.225
675.413	171.14
678.787	119.33
682.162	109.951
685.537	99.2478
688.912	81.2974
692.287	58.9751
695.662	26.0283
699.036	17.9852
702.411	13.1805
705.786	22.7655
709.161	21.5966
712.535	26.7203
715.91	22.3696
719.285	15.7322
722.66	7.2395
726.035	0.94812
729.41	9.97705
732.784	3.0304
736.159	1.79187
739.534	1.15759
742.909	2.38599
746.284	10.828
749.659	10.1429
753.033	3.79187
756.408	0.036133
759.783	2.57825
763.158	0.411621
766.533	17.2635
769.907	11.0956
773.282	1.62805
776.657	3.68811
780.032	3.28565
783.407	0.374512
786.782	0.496216
790.156	10.7772
793.531	26.7966
796.906	2.13977
800.281	3.64746
803.655	7.89673
807.03	6.45923
810.405	22.4257
813.78	9.68579
817.155	26.3271
820.53	25.4954
823.904	38.0875
827.279	10.6187
830.654	3.89807
834.029	6.09229
837.404	7.0404
840.779	4.28418
844.153	5.37134
847.528	11.7026
850.903	7.54846
854.278	0.40271
857.653	7.47473
861.027	0.872681
864.402	4.93835
867.777	13.0232
871.152	8.4574
874.527	8.2124
877.901	4.21851
881.276	13.75
884.651	28.9778
888.026	11.177
891.401	11.6849
894.775	7.45081
898.15	4.36816
901.525	3.47168
904.9	1.44214
908.275	13.1019
911.65	1.47058
915.024	2.72522
918.399	6.74585
921.774	8.24548
925.149	3.56946
928.524	0.462036
931.899	14.0813
935.273	2.4707
938.648	4.44421
942.023	5.3938
945.398	6.03784
948.773	10.0037
952.147	30.0559
955.522	27.3278
958.897	40.7073
962.272	55.4434
965.647	51.9789
969.021	65.1066
972.396	89.1454
975.771	122.301
979.146	173.485
982.521	225.271
985.895	242.644
989.27	233.711
992.645	215.21
996.02	216.148
999.395	226.904
1002.77	233.859
1006.14	237.392
1009.52	202.993
1012.89	165.075
1016.27	149.623
1019.64	127.526
1023.02	111.374
1026.39	93.2026
1029.77	70.5918
1033.14	46.6671
1036.52	42.8318
1039.89	27.6606
1043.27	24.3729
1046.64	14.5065
1050.02	0.677612
1053.39	5.92224
1056.77	8.21826
1060.14	2.36169
1063.52	10.3767
1066.89	0.462646
1070.27	2.07385
1073.64	3.71716
1077.02	3.89136
1080.39	4.30286
1083.77	0.164307
1087.14	9.14539
1090.52	6.48779
1093.89	12.8377
1097.26	4.90759
1100.64	1.10181
1104.01	5.16309
1107.39	25.4872
1110.76	13.4183
1114.14	6.29297
1117.51	7.94617
1120.89	7.74133
1124.26	0.947021
1127.64	15.9121
1131.01	8.37927
1134.39	8.47388
1137.76	11.0227
1141.14	22.79
1144.51	25.401
1147.89	17.7312
1151.26	18.8124
1154.64	31.9668
1158.01	19.8671
1161.39	15.0507
1164.76	15.5513
1168.13	13.9087
1171.51	12.6602
1174.88	9.88086
1178.26	22.299
1181.63	17.4351
1185.01	8.21191
1188.38	12.3099
1191.76	21.2074
1195.13	18.3307
1198.51	16.243
1201.88	9.24866
1205.26	6.3269
1208.63	9.65491
1212.01	4.17151
1215.38	7.27466
1218.76	4.01294
1222.13	5.51514
1225.51	9.34692
1228.88	4.80786
1232.26	4.4303
1235.63	10.2003
1239.01	2.80261
1242.38	2.53772
1245.76	9.61926
1249.13	5.46887
1252.51	0.523438
1255.88	7.10217
1259.26	14.0598
1262.63	9.45544
1266.01	8.90259
1269.38	0.412231
1272.76	4.97461
1276.13	6.63403
1279.5	5.09033
1282.88	1.44482
