Measurement: Raman, 780 nm, unoriented, Raman Data Processed
Mineral: Namuwite
Rruff sample: R130173
Ideal chemistry: Zn^2+^_4_S^6+^O_4_(OH)_6_4H_2_O
Locality: Trentini mine, Schio, Vincenza, Italy
Source: Donald Doell (small piece), Rock Currier (large piece)
Description: Very pale-green platy crystals, associated with colorless gypsum and green ramsbeckite.
Raman shift (cm-1)	intensity
162.071	0
164.963	0.222099
167.856	0.460697
170.749	2.16308
173.642	1.90239
176.534	3.33602
179.427	3.9689
182.32	4.5795
185.212	3.11181
188.105	2.00422
190.998	1.8716
193.89	1.42171
196.783	1.48984
199.676	3.33759
202.569	5.22184
205.461	5.25597
208.354	7.63153
211.247	7.39093
214.139	6.50817
217.032	4.9183
219.925	3.96288
222.817	4.2761
225.71	6.11451
228.603	8.56173
231.495	8.52471
234.388	10.298
237.281	8.66917
240.173	7.72243
243.066	6.81048
245.959	5.94656
248.852	5.59513
251.744	4.98733
254.637	3.27944
257.53	3.13617
260.422	3.05716
263.315	3.38199
266.208	3.13928
269.101	2.96452
271.993	2.09305
274.886	1.88059
277.779	0.495325
280.671	1.15545
283.564	0.763937
286.457	0.860657
289.349	0.335217
292.242	0.571241
295.135	0.612049
298.027	0.643087
300.92	0.085953
303.813	0.094383
306.706	0.455296
309.598	0.322479
312.491	0.754818
315.384	0.350725
318.276	0.752668
321.169	0.028496
324.062	0.675646
326.954	0.189785
329.847	0.304804
332.74	0.151991
335.633	0.120369
338.525	0.346521
341.418	1.38349
344.311	0.980194
347.203	1.99029
350.096	1.05045
352.989	3.21162
355.882	2.56811
358.774	3.86175
361.667	4.08218
364.56	4.33301
367.452	4.66389
370.345	5.58152
373.238	5.76555
376.13	5.98927
379.023	7.26019
381.916	8.85515
384.808	10.6284
387.701	13.4914
390.594	14.8162
393.486	16.4694
396.379	14.8906
399.272	12.9703
402.165	9.05519
405.057	6.77314
407.95	5.60906
410.843	4.24963
413.735	3.57145
416.628	3.92083
419.521	4.31895
422.413	4.25974
425.306	5.58689
428.199	5.40773
431.092	5.10749
433.984	5.92181
436.877	6.05111
439.77	5.82588
442.662	6.92378
445.555	7.76367
448.448	8.14454
451.341	7.94828
454.233	6.85634
457.126	6.41647
460.019	4.39793
462.911	3.97687
465.804	2.28348
468.697	2.36471
471.589	1.0054
474.482	0.808474
477.375	0.027132
480.267	0.53368
483.16	0.212889
486.053	0.216127
488.946	0.122652
491.838	0.77066
494.731	0.816523
497.624	2.269
500.516	2.10133
503.409	0.808701
506.302	0.73514
509.195	0.011101
512.087	0.220634
514.98	0.244856
517.873	0.065617
520.765	0.069521
523.658	0.187838
526.551	0.859383
529.443	0.47905
532.336	1.02018
535.229	0.400066
538.121	0.637022
541.014	0.548002
543.907	0.259283
546.799	0.010527
549.692	0.37599
552.585	0.150311
555.478	1.41703
558.37	0.751833
561.263	1.15068
564.156	0.933458
567.048	0.857565
569.941	1.2357
572.834	1.24843
575.726	0.553583
578.619	1.02523
581.512	1.55172
584.405	1.49636
587.297	2.10133
590.19	2.94561
593.083	4.57987
595.975	5.11005
598.868	6.59551
601.761	6.77832
604.654	5.6142
607.546	4.11777
610.439	3.95122
613.332	3.07025
616.224	3.51344
619.117	2.80687
622.01	3.57316
624.902	3.77155
627.795	4.59276
630.688	3.59576
633.58	4.11247
636.473	2.59263
639.366	2.08776
642.259	2.0871
645.151	1.22003
648.044	1.15717
650.937	1.31844
653.829	0.992541
656.722	0.369489
659.615	0.044161
662.507	0.391798
665.4	0.441839
668.293	0.537335
671.186	0.224641
674.078	0.096454
676.971	0.485908
679.864	1.20315
682.756	0.725465
685.649	0.135932
688.542	0.423679
691.434	0.589756
694.327	1.13606
697.22	0.301201
700.112	0.3512
703.005	0.831822
705.898	1.03925
708.791	0.39648
711.683	0.034044
714.576	0.724594
717.469	0.246366
720.361	0.272364
723.254	0.874704
726.147	0.960703
729.039	0.444963
731.932	0.741534
734.825	1.3017
737.718	0.22784
740.61	1.12352
743.503	0.933267
746.396	0.997581
749.288	0.624283
752.181	0.44208
755.074	0.076645
757.966	0.268492
760.859	0.738947
763.752	0.620819
766.645	0.232281
769.537	0.054362
772.43	0.081747
775.323	0.248219
778.215	0.945537
781.108	0.729697
784.001	0.496763
786.894	1.16326
789.786	0.831689
792.679	0.125896
795.572	0.501065
798.464	0.542184
801.357	0.761588
804.25	1.50591
807.142	0.218411
810.035	0.933849
812.928	1.25352
815.82	0.638406
818.713	1.17038
821.606	0.327704
824.499	0.909034
827.391	0.651538
830.284	0.51397
833.177	0.542811
836.069	1.14607
838.962	0.817609
841.855	0.239011
844.747	0.324312
847.64	0.026751
850.533	1.60508
853.426	0.910171
856.318	0.751599
859.211	0.020246
862.104	0.882512
864.996	1.10021
867.889	0.587049
870.782	0.677578
873.674	1.11982
876.567	0.253927
879.46	0.742139
882.352	0.974034
885.245	0.712658
888.138	0.448973
891.031	0.332502
893.923	1.37264
896.816	1.56897
899.709	0.024943
902.601	0.530514
905.494	0.67198
908.387	0.253336
911.279	0.121284
914.172	0.084846
917.065	0.632548
919.958	0.510491
922.85	0.237539
925.743	0.193871
928.636	0.039124
931.528	0.03092
934.421	0.509658
937.314	0.446203
940.207	1.50139
943.099	1.11209
945.992	1.54011
948.885	3.95376
951.777	5.78346
954.67	10.9195
957.563	17.9586
960.455	26.6811
963.348	30.9266
966.241	28.9493
969.133	27.2864
972.026	24.0302
974.919	14.6508
977.812	10.3227
980.704	6.16527
983.597	4.96777
986.49	4.11804
989.382	4.14347
992.275	4.19363
995.168	5.31077
998.06	6.0199
1000.95	6.82951
1003.85	7.11005
1006.74	8.34082
1009.63	7.54152
1012.52	7.7626
1015.42	7.56364
1018.31	7.71686
1021.2	6.5376
1024.1	5.54832
1026.99	4.77328
1029.88	4.07078
1032.77	3.95901
1035.67	2.63286
1038.56	2.27376
1041.45	2.93332
1044.34	3.25904
1047.24	2.44836
1050.13	2.39535
1053.02	1.18494
1055.91	0.841701
1058.81	0.850863
1061.7	0.605258
1064.59	0.506186
1067.48	0.259316
1070.38	0.36662
1073.27	0.018726
1076.16	0.135799
1079.06	0.388
1081.95	1.06255
1084.84	0.399914
1087.73	1.42409
1090.63	1.42524
1093.52	0.881077
1096.41	0.909346
1099.31	0.877894
1102.2	0.695749
1105.09	1.39316
1107.98	0.574028
1110.88	0.948024
1113.77	1.18164
1116.66	0.410581
1119.55	1.07058
1122.45	1.01279
1125.34	0.108107
1128.23	0.278996
1131.12	0.366001
1134.02	0.531312
1136.91	0.071481
1139.8	0.303451
1142.69	0.538755
1145.59	1.31949
1148.48	1.54572
1151.37	1.79611
1154.27	1.97397
1157.16	1.9911
1160.05	1.77067
1162.94	1.0573
1165.84	1.35551
1168.73	0.337699
1171.62	0.782806
1174.52	0.478702
1177.41	1.07943
1180.3	0.781178
1183.19	0.263288
1186.09	0.917858
1188.98	0.250429
1191.87	0.007566
1194.76	0.901874
1197.66	0.522277
1200.55	0.648623
1203.44	0.72629
1206.34	0.513003
1209.23	0.588778
1212.12	0.598039
1215.01	0.699808
1217.91	0.70246
1220.8	0.146231
1223.69	0.354722
1226.58	0.893263
1229.48	0.372434
1232.37	0.211514
1235.26	0.221584
1238.15	0.345391
1241.05	0.444355
1243.94	0.701321
1246.83	0.714919
1249.72	0.802459
1252.62	0.836334
1255.51	1.08064
1258.4	0.68629
1261.3	0.076434
1264.19	0.336936
1267.08	0.764195
1269.97	0.07746
1272.87	0.667671
1275.76	0.701376
1278.65	0.306503
1281.55	0.134522
