Measurement: Raman, 532 nm, unoriented, Raman Data Processed
Mineral: Namuwite
Rruff sample: R130173
Ideal chemistry: Zn^2+^_4_S^6+^O_4_(OH)_6_4H_2_O
Locality: Trentini mine, Schio, Vincenza, Italy
Source: Donald Doell (small piece), Rock Currier (large piece)
Description: Very pale-green platy crystals, associated with colorless gypsum and green ramsbeckite.
Raman shift (cm-1)	intensity
192.535	0
195.427	0.322533
198.32	2.83583
201.213	6.42434
204.105	5.54389
206.998	7.8533
209.891	7.35559
212.784	8.66786
215.676	5.82101
218.569	7.67399
221.462	6.21644
224.354	9.60104
227.247	10.6098
230.14	11.8855
233.032	13.6207
235.925	12.6788
238.818	11.6789
241.71	11.8845
244.603	10.1675
247.496	9.54963
250.389	7.56126
253.281	4.31789
256.174	4.34011
259.067	3.96164
261.959	3.84529
264.852	3.34421
267.745	3.49023
270.637	2.32051
273.53	1.08036
276.423	0.789097
279.316	1.61256
282.208	1.11303
285.101	0.546616
287.994	0.954838
290.886	1.58756
293.779	1.51192
296.672	0.173302
299.565	0.408184
302.457	0.356327
305.35	0.399094
308.243	0.357086
311.135	0.133102
314.028	0.247967
316.921	1.78758
319.813	0.848717
322.706	0.432919
325.599	0.295048
328.491	0.015354
331.384	0.458637
334.277	0.755692
337.17	1.11749
340.062	0.25642
342.955	0.772938
345.848	0.150311
348.74	1.04325
351.633	0.813564
354.526	1.63067
357.418	1.83468
360.311	2.0584
363.204	2.64236
366.097	2.13674
368.989	4.486
371.882	4.52743
374.775	4.9039
377.667	7.9024
380.56	7.60037
383.453	11.7967
386.346	15.9229
389.238	17.0944
392.131	19.6665
395.024	17.3847
397.916	15.2845
400.809	11.3086
403.702	8.2568
406.594	7.26174
409.487	4.97012
412.38	4.34307
415.272	4.61628
418.165	5.35526
421.058	3.45857
423.951	4.92129
426.843	6.28168
429.736	6.47617
432.629	8.10659
435.521	8.01385
438.414	8.36688
441.307	8.00456
444.2	8.89452
447.092	9.8998
449.985	9.57898
452.878	9.83348
455.77	10.6778
458.663	9.78816
461.556	7.97956
464.448	5.73558
467.341	5.35586
470.234	4.20978
473.127	2.68889
476.019	2.27913
478.912	1.21346
481.805	0.61195
484.697	0.468372
487.59	0.406902
490.483	0.661709
493.375	0.863888
496.268	1.33469
499.161	2.60015
502.053	1.89175
504.946	0.852188
507.839	1.50629
510.732	0.490891
513.624	0.664059
516.517	0.764786
519.41	1.75322
522.302	0.96088
525.195	0.735535
528.088	1.68183
530.981	1.4337
533.873	1.70661
536.766	0.98732
539.659	0.540928
542.551	0.65641
545.444	1.22816
548.337	0.028839
551.229	0.058804
554.122	0.282032
557.015	1.35775
559.908	0.346226
562.8	1.82233
565.693	1.69526
568.586	0.762722
571.478	1.27472
574.371	2.22057
577.264	1.57095
580.156	0.780781
583.049	2.08929
585.942	2.04049
588.835	3.5781
591.727	5.30096
594.62	6.2672
597.513	6.62361
600.405	9.66906
603.298	10.378
606.191	10.1383
609.083	10.9776
611.976	8.7594
614.869	6.70418
617.761	6.08125
620.654	5.58958
623.547	5.64318
626.44	3.45146
629.332	3.82998
632.225	1.74091
635.118	3.26501
638.01	2.6666
640.903	1.08863
643.796	1.71075
646.688	1.4808
649.581	0.420647
652.474	1.29919
655.367	0.028427
658.259	1.62474
661.152	0.092819
664.045	1.01937
666.937	0.341908
669.83	1.01424
672.723	0.685768
675.615	0.634739
678.508	0.190403
681.401	0.631641
684.294	0.088387
687.186	1.44358
690.079	0.300312
692.972	0.119164
695.864	1.0264
698.757	2.05596
701.65	0.822266
704.543	0.552872
707.435	0.789444
710.328	2.05552
713.221	0.016159
716.113	0.162262
719.006	1.01184
721.899	0.559124
724.791	0.754303
727.684	1.05053
730.577	1.05928
733.47	0.101131
736.362	0.686893
739.255	0.842163
742.148	0.111252
745.04	1.76428
747.933	0.801228
750.826	0.741444
753.718	0.739765
756.611	0.737591
759.504	0.018032
762.396	1.73119
765.289	0.201378
768.182	0.817844
771.075	0.341843
773.967	0.921959
776.86	0.923195
779.753	0.300781
782.645	0.432774
785.538	0.701393
788.431	0.111042
791.323	2.34342
794.216	1.0355
797.109	0.368217
800.002	0.120792
802.894	0.365002
805.787	0.378597
808.68	1.2879
811.572	0.550041
814.465	0.903927
817.358	0.046291
820.25	0.206825
823.143	0.825451
826.036	0.98584
828.929	0.992046
831.821	1.52142
834.714	0.763294
837.607	2.50869
840.5	1.45611
843.392	1.45649
846.285	1.47324
849.178	0.091969
852.07	1.35071
854.963	0.051582
857.856	1.10897
860.748	1.89777
863.641	2.04827
866.534	0.619736
869.427	1.34621
872.319	1.55957
875.212	1.22234
878.105	0.479435
880.997	1.94017
883.89	0.591698
886.783	0.498508
889.675	1.49817
892.568	0.702221
895.461	1.34575
898.354	0.045998
901.246	1.96759
904.139	1.35755
907.032	0.595352
909.924	0.987587
912.817	1.32373
915.71	0.081161
918.602	0.063465
921.495	0.235683
924.388	0.391407
927.28	0.286629
930.173	0.648968
933.066	0.490276
935.959	1.62133
938.851	2.62719
941.744	3.86659
944.637	6.09042
947.529	9.83998
950.422	14.7835
953.315	21.1277
956.207	26.8735
959.1	30.2037
961.993	34.2295
964.886	33.752
967.778	31.0723
970.671	26.2643
973.564	15.9863
976.456	8.78821
979.349	5.3627
982.242	4.13821
985.135	1.72024
988.027	1.77933
990.92	0.875778
993.813	2.40042
996.705	2.39903
999.598	5.32822
1002.49	5.71858
1005.38	7.23421
1008.28	7.54679
1011.17	8.7697
1014.06	8.73017
1016.95	9.04378
1019.85	6.61656
1022.74	5.99334
1025.63	5.54137
1028.53	5.31731
1031.42	2.60506
1034.31	1.8529
1037.2	1.40642
1040.1	0.840813
1042.99	1.49084
1045.88	0.725212
1048.77	0.422775
1051.67	0.760887
1054.56	1.1662
1057.45	1.57237
1060.35	1.46796
1063.24	1.72432
1066.13	1.77457
1069.02	1.17956
1071.92	0.399651
1074.81	1.47065
1077.7	1.7861
1080.59	1.99524
1083.49	0.266747
1086.38	1.7226
1089.27	0.409557
1092.16	0.762604
1095.06	0.080738
1097.95	0.374439
1100.84	0.413757
1103.73	0.40065
1106.63	0.291138
1109.52	0.386494
1112.41	1.43367
1115.31	0.790421
1118.2	2.7035
1121.09	1.92392
1123.98	2.67799
1126.88	3.60646
1129.77	3.06072
1132.66	4.44064
1135.56	4.51509
1138.45	3.3638
1141.34	2.65947
1144.23	4.02351
1147.13	3.87758
1150.02	3.84132
1152.91	3.22185
1155.8	2.84595
1158.7	3.42865
1161.59	2.86231
1164.48	1.6584
1167.38	0.75771
1170.27	0.880142
1173.16	0.892536
1176.05	0.573872
1178.94	0.512569
1181.84	1.53663
1184.73	2.32058
1187.62	0.06567
1190.52	1.10897
1193.41	0.412712
1196.3	0.65229
1199.19	0.230854
1202.09	1.10896
1204.98	0.439049
1207.87	0.760612
1210.77	1.5695
1213.66	1.05536
1216.55	1.59301
1219.44	1.50492
1222.34	0.576252
1225.23	1.34591
1228.12	1.13755
1231.01	1.38142
1233.91	1.29877
1236.8	0.227295
1239.69	1.06195
1242.59	1.93472
1245.48	1.23819
1248.37	0.259048
1251.26	0.292576
1254.16	1.40487
1257.05	1.39634
1259.94	1.18762
1262.83	1.33276
1265.73	1.24571
1268.62	1.76225
1271.51	1.50803
1274.4	0.355659
1277.3	0.555946
1280.19	0.427971
1283.08	1.43955
1285.97	1.90344
1288.87	0.821877
1291.76	0.957615
1294.65	1.59564
1297.55	0.872356
1300.44	1.13982
