Measurement: Raman, 780 nm, unoriented, Raman Data Processed
Mineral: Narsarsukite
Rruff sample: R060217
Ideal chemistry: Na_2_(Ti^4+^,Fe^3+^)Si_4_(O,F)_11_
Locality: Mont Saint-Hilaire, Rouville County, Quebec, Canada
Source: Royal Ontario Museum
Description: Tan to green tetragonal prisms
Raman shift (cm-1)	intensity
157.877	0
160.77	245.984
163.662	631.812
166.555	113.609
169.448	91.5
172.341	111.266
175.233	89.375
178.126	182.797
181.019	173.594
183.911	468.109
186.804	654.484
189.697	856.844
192.589	991.781
195.482	1156.78
198.375	1266.58
201.268	906.5
204.16	1054.59
207.053	944.031
209.946	634.516
212.838	916.406
215.731	868.141
218.624	783.953
221.517	950.438
224.409	1189.56
227.302	1090.05
230.195	1225.72
233.087	741.219
235.98	1007.08
238.873	434.422
241.765	187.453
244.658	466.703
247.551	867.281
250.444	964.469
253.336	1286.23
256.229	1380.88
259.122	1802.92
262.014	1812.95
264.907	2198.78
267.8	2031.84
270.692	2129.58
273.585	1359.12
276.478	1217.61
279.37	576.469
282.263	313.016
285.156	324.312
288.049	194.141
290.941	213.562
293.834	147.281
296.727	312.125
299.619	204.156
302.512	13.8906
305.405	57.5156
308.298	105.391
311.19	271.75
314.083	431.266
316.976	609.672
319.868	636.672
322.761	1036.47
325.654	726.281
328.546	990.125
331.439	766.234
334.332	783.297
337.224	771.047
340.117	756
343.01	831.141
345.903	827.75
348.795	931.359
351.688	583.781
354.581	597.141
357.473	968.766
360.366	417.109
363.259	456.109
366.151	324.984
369.044	667.922
371.937	718.266
374.83	433.453
377.722	794.484
380.615	397.781
383.508	257.672
386.4	175.375
389.293	136.781
392.186	181.344
395.079	18.6562
397.971	212.125
400.864	161.219
403.757	258.078
406.649	182.406
409.542	254.906
412.435	194.469
415.327	218.25
418.22	232.266
421.113	1065.72
424.005	1345.88
426.898	1516.41
429.791	1567.02
432.684	1674.94
435.576	1479.2
438.469	1437
441.362	1349.55
444.254	1967.03
447.147	1779.92
450.04	1884.25
452.933	1860.58
455.825	1336.16
458.718	1205.28
461.611	1095.97
464.503	1211.84
467.396	1284.27
470.289	1386.36
473.181	1640.94
476.074	1858.8
478.967	1958.28
481.86	2129.08
484.752	1904.8
487.645	1676.11
490.538	1452.75
493.43	1414.64
496.323	1477.98
499.216	1315.05
502.108	871.391
505.001	992.422
507.894	1197.86
510.786	1307.14
513.679	945.906
516.572	1103.91
519.465	878.531
522.357	970.969
525.25	591.469
528.143	857.266
531.035	796.641
533.928	550.875
536.821	0.390625
539.713	193.688
542.606	87.5781
545.499	47.0938
548.392	15.2812
551.284	309.5
554.177	510.656
557.07	591.328
559.962	32.3594
562.855	2.82812
565.748	33.5938
568.64	374.453
571.533	444.406
574.426	159.734
577.319	537.469
580.211	301.312
583.104	277.734
585.997	578.125
588.889	615.516
591.782	770.953
594.675	274.922
597.567	689.578
600.46	486.516
603.353	503.875
606.246	714.219
609.138	328.375
612.031	700.344
614.924	430.281
617.816	889.875
620.709	1051.22
623.602	1206.77
626.495	1367.02
629.387	964.234
632.28	858.969
635.173	1136.78
638.065	1163.91
640.958	1092.28
643.851	1014.16
646.743	1120.84
649.636	1164.14
652.529	1011.23
655.422	580.234
658.314	479.156
661.207	365.578
664.1	491.641
666.992	458.172
669.885	317.438
672.778	494.734
675.67	380.312
678.563	127.734
681.456	173.875
684.348	216.906
687.241	219.484
690.134	42.2905
693.027	152.969
695.919	198.281
698.812	82.1094
701.705	144.562
704.597	124.891
707.49	339.938
710.383	356.641
713.275	300.547
716.168	423.469
719.061	27.8281
721.954	18.3281
724.846	232.297
727.739	835
730.632	1317.83
733.524	1406.16
736.417	1816.84
739.31	1779.48
742.202	1930.73
745.095	2480.22
747.988	2885.25
750.881	4133.81
753.773	5098.88
756.666	5888.98
759.559	6371.31
762.451	7033.23
765.344	7408.08
768.237	8071.7
771.13	8460
774.022	8576.45
776.915	8367.73
779.808	7656.41
782.7	7398.45
785.593	6977.44
788.486	6623.61
791.378	6045.09
794.271	5872.91
797.164	5474.22
800.057	4573.48
802.949	3587.09
805.842	3415.58
808.735	3090.41
811.627	1889.38
814.52	993.562
817.413	1284.5
820.305	709.625
823.198	293.172
826.091	227.75
828.984	204.875
831.876	185.5
834.769	190.016
837.662	21.9062
840.554	55.6719
843.447	11.4688
846.34	243.344
849.232	344.312
852.125	500.938
855.018	258.547
857.91	705.938
860.803	902.375
863.696	1846.95
866.589	2218.67
869.481	2508.91
872.374	2853.23
875.267	3448.16
878.159	3531.38
881.052	3785.31
883.945	3681.05
886.837	3032.89
889.73	2057.33
892.623	2192.42
895.516	2229.75
898.408	1917.48
901.301	1989.02
904.194	1724
907.086	1516.97
909.979	1118.05
912.872	602.266
915.764	2.01562
918.657	151.797
921.55	257.516
924.443	293.125
927.335	165.922
930.228	447.984
933.121	397.484
936.013	250.578
938.906	424.469
941.799	625.359
944.692	772.25
947.584	793.859
950.477	481.125
953.37	583.625
956.262	770.672
959.155	842.547
962.048	933.844
964.94	545.703
967.833	569.422
970.726	399.172
973.619	349.828
976.511	46.6406
979.404	152.586
982.297	42.3438
985.189	371.797
988.082	610.422
990.975	918.141
993.867	1047.2
996.76	1450.84
999.653	1517.16
1002.54	1776.33
1005.44	1946.08
1008.33	1888.09
1011.22	1459.05
1014.12	1632.23
1017.01	1679.42
1019.9	1466.23
1022.79	1449.72
1025.69	1486.11
1028.58	1104.36
1031.47	1150.81
1034.37	1046.95
1037.26	1055.3
1040.15	1036.53
1043.04	1189.16
1045.94	1196.77
1048.83	1149.67
1051.72	1454.86
1054.61	1688.38
1057.51	1167.73
1060.4	1311.95
1063.29	1146
1066.18	1046.81
1069.08	709.641
1071.97	865.5
1074.86	642.688
1077.76	452.188
1080.65	692.781
1083.54	418.406
1086.43	537.797
1089.33	666.672
1092.22	560.859
1095.11	157.047
1098.01	308.219
1100.9	221.078
1103.79	78.1094
1106.68	191.438
1109.58	67.3438
1112.47	71.5156
1115.36	77.8125
1118.25	174.891
1121.15	138.094
1124.04	702.766
1126.93	375.062
1129.82	492.094
1132.72	559.281
1135.61	738.078
1138.5	382.797
1141.39	672.422
1144.29	653.078
1147.18	677.141
1150.07	867.031
1152.97	698.781
1155.86	822.359
1158.75	977.516
1161.64	1269.69
1164.54	1410.48
1167.43	1425.42
1170.32	1427.64
1173.21	1576.84
1176.11	1758.7
1179	1558.05
1181.89	1452.94
1184.79	1570.5
1187.68	1810.14
1190.57	1937.98
1193.46	1738.53
1196.36	1599.91
1199.25	1709.33
1202.14	1741.91
1205.03	1061.02
1207.93	812.094
1210.82	1100.83
1213.71	1154.7
1216.61	1261.92
1219.5	446.453
1222.39	319.375
1225.28	302.906
1228.18	704.188
1231.07	536.156
1233.96	629.062
1236.85	286.953
1239.75	373.75
1242.64	382.344
1245.53	270.281
1248.42	1.09375
1251.32	135.984
1254.21	163.703
1257.1	202.531
1260	367.203
1262.89	56.4062
1265.78	493.969
1268.67	622.969
1271.57	331.797
1274.46	200.312
1277.35	763.141
1280.24	28.0781
1283.14	193.375
