Measurement: Raman, 532 nm, unoriented, Raman Data Processed
Mineral: Natroalunite
Rruff sample: R060406
Ideal chemistry: NaAl_3_(S^6+^O_4_)_2_(OH)_6_
Locality: Sugar Loaf Butte, Arizona, USA
Source: American Museum of Natural History
Description: Tan colored consolidated powder
Raman shift (cm-1)	intensity
172.031	0
174.924	6.35242
177.816	21.8173
180.709	28.7585
183.602	35.029
186.494	48.4877
189.387	63.9374
192.28	73.6185
195.173	76.3557
198.065	81.2007
200.958	82.9747
203.851	84.4785
206.743	89.9523
209.636	89.6279
212.529	85.7733
215.421	86.5599
218.314	99.8062
221.207	98.2914
224.1	107.054
226.992	114.687
229.885	127.226
232.778	138.366
235.67	149.54
238.563	123.55
241.456	97.804
244.348	70.8901
247.241	60.4026
250.134	54.1033
253.026	45.0502
255.919	38.4777
258.812	37.8937
261.705	31.7941
264.597	37.7919
267.49	30.2291
270.383	29.041
273.276	21.5173
276.168	21.2511
279.061	9.3324
281.954	7.71851
284.846	3.6001
287.739	9.22449
290.632	7.52356
293.524	0.255127
296.417	3.40417
299.31	8.69751
302.202	1.55017
305.095	3.96814
307.988	0.212036
310.881	0.739746
313.773	0.140503
316.666	1.59729
319.559	4.30054
322.451	0.289185
325.344	2.91248
328.237	0.00415
331.13	10.8197
334.022	6.1654
336.915	4.82458
339.808	8.45581
342.7	5.51843
345.593	15.5621
348.486	14.9259
351.378	14.7709
354.271	9.12732
357.164	11.8289
360.057	10.2645
362.949	3.58838
365.842	6.12036
368.735	10.7111
371.627	18.2941
374.52	17.2419
377.413	26.5227
380.305	34.6875
383.198	39.2214
386.091	29.9225
388.984	17.995
391.876	10.8822
394.769	7.32043
397.662	6.13611
400.554	10.3456
403.447	6.10217
406.34	9.10767
409.233	0.902588
412.125	2.67822
415.018	0.331055
417.911	4.91077
420.803	6.73767
423.696	5.62036
426.589	3.23694
429.481	9.55322
432.374	11.9823
435.267	16.6395
438.159	13.7051
441.052	11.8296
443.945	10.6328
446.838	7.56519
449.73	8.41138
452.623	9.69678
455.516	3.21411
458.409	6.41406
461.301	8.47241
464.194	9.70947
467.087	9.20923
469.979	20.4045
472.872	13.3667
475.765	24.9004
478.657	35.7004
481.55	40.5808
484.443	49.866
487.336	40.1785
490.228	27.6445
493.121	15.4187
496.014	26.7861
498.906	34.9976
501.799	23.283
504.692	20.4246
507.584	17.4751
510.477	20.0935
513.37	19.6003
516.263	7.43286
519.155	3.91235
522.048	0.55249
524.941	7.04248
527.833	9.85693
530.726	1.06665
533.619	10.2205
536.511	6.81934
539.404	4.92896
542.297	5.58228
545.19	9.62036
548.082	11.9895
550.975	17.29
553.868	18.7722
556.76	18.271
559.653	11.8469
562.546	16.8247
565.438	19.4736
568.331	16.1614
571.224	13.6321
574.117	16.0706
577.009	11.5332
579.902	0.230957
582.795	7.5061
585.687	4.92017
588.58	11.7949
591.473	10.0178
594.365	2.2644
597.258	9.02319
600.151	5.36377
603.044	1.03223
605.936	4.75854
608.829	0.26709
611.722	2.84228
614.614	11.4888
617.507	7.20239
620.4	3.01099
623.293	3.08813
626.185	5.76782
629.078	2.08447
631.971	1.44458
634.863	2.44409
637.756	17.2427
640.649	28.8538
643.542	40.4329
646.434	39.6594
649.327	49.3267
652.22	67.0725
655.112	74.9651
658.005	49.5364
660.898	30.5386
663.79	16.6521
666.683	9.32983
669.576	3.11304
672.468	8.53784
675.361	14.3232
678.254	8.43652
681.147	12.1328
684.039	10.709
686.932	7.09106
689.825	16.5303
692.717	15.1392
695.61	1.61108
698.503	11.2427
701.396	7.95874
704.288	13.9172
707.181	11.8918
710.074	13.7861
712.966	13.1929
715.859	18.2293
718.752	7.22021
721.644	3.15845
724.537	1.03223
727.43	0.616699
730.323	2.48315
733.215	2.11646
736.108	5.64478
739.001	11.7942
741.893	0.452148
744.786	12.9876
747.679	0.338867
750.572	2.95093
753.464	1.84277
756.357	2.28345
759.25	0.976318
762.142	3.67651
765.035	11.7532
767.928	12.2197
770.82	6.90967
773.713	8.36816
776.606	2.35034
779.499	4.08179
782.391	7.87964
785.284	11.7395
788.177	6.34912
791.069	9.69775
793.962	12.2966
796.855	9.11108
799.747	15.1277
802.64	18.0322
805.533	7.80786
808.426	6.19824
811.318	9.84619
814.211	12.4976
817.104	8.35083
819.996	4.198
822.889	10.6982
825.782	4.09644
828.674	2.43945
831.567	8.75586
834.46	10.9426
837.353	3.22949
840.245	0.008057
843.138	10.5877
846.031	9.71606
848.923	5.41284
851.816	3.41504
854.709	10.0339
857.601	2.13916
860.494	1.57593
863.387	9.82129
866.28	7.78369
869.172	10.3972
872.065	13.6296
874.958	7.35327
877.851	16.7781
880.743	7.76904
883.636	9.1394
886.529	3.6145
889.421	6.38916
892.314	4.79956
895.207	17.6914
898.099	7.74219
900.992	11.1687
903.885	13.71
906.778	12.0315
909.67	16.364
912.563	11.0935
915.456	8.2356
918.348	13.7668
921.241	7.60742
924.134	7.17798
927.026	12.408
929.919	12.6013
932.812	19.6025
935.705	15.7056
938.597	18.2236
941.49	2.07861
944.383	2.45068
947.275	10.6416
950.168	4.22852
953.061	1.23584
955.953	0.77832
958.846	3.86182
961.739	0.323486
964.631	3.01245
967.524	13.0269
970.417	16.9468
973.31	10.5535
976.202	1.54175
979.095	11.4177
981.988	5.87256
984.88	7.50977
987.773	7.49219
990.666	0.689209
993.559	8.52783
996.451	3.64624
999.344	11.3838
1002.24	14.373
1005.13	12.3926
1008.02	17.1755
1010.91	18.9375
1013.81	36.7954
1016.7	68.8076
1019.59	108.538
1022.49	179.827
1025.38	238.668
1028.27	213.769
1031.16	91.801
1034.06	37.5891
1036.95	16.4002
1039.84	8.06055
1042.73	5.23438
1045.63	11.6077
1048.52	10.1711
1051.41	1.62231
1054.31	1.25781
1057.2	0.113037
1060.09	1.37109
1062.98	9.77905
1065.88	6.43481
1068.77	4.60718
1071.66	29.9634
1074.55	26.595
1077.45	35.3323
1080.34	37.261
1083.23	29.7451
1086.12	15.2429
1089.02	11.6245
1091.91	5.59619
1094.8	3.07056
1097.7	1.15918
1100.59	5.50781
1103.48	5.3418
1106.37	10.9297
1109.27	15.4558
1112.16	8.99951
1115.05	3.146
1117.94	2.88647
1120.84	3.23657
1123.73	3.97852
1126.62	7.75098
1129.52	5.61255
1132.41	7
1135.3	3.61865
1138.19	0.587158
1141.09	1.39478
1143.98	13.8618
1146.87	13.439
1149.77	19.9731
1152.66	8.49634
1155.55	7.9751
1158.44	5.75391
1161.34	11.8887
1164.23	11.206
1167.12	11.3498
1170.01	1.34814
1172.91	8.5188
1175.8	14.3076
1178.69	9.4021
1181.58	16.011
1184.48	19.1426
1187.37	23.4036
1190.26	21.5906
1193.15	29.2656
1196.05	10.6543
1198.94	17.3779
1201.83	13.7356
1204.73	4.33447
1207.62	6.57324
1210.51	7.74585
1213.4	15.4338
1216.3	11.1733
1219.19	2.85449
1222.08	5.32837
1224.97	13.8606
1227.87	11.2273
1230.76	11.2483
1233.65	5.62061
1236.55	3.86719
1239.44	1.62964
1242.33	3.68433
1245.22	2.6687
1248.12	8.21118
1251.01	5.36401
1253.9	11.6216
1256.8	0.322754
1259.69	17.4277
1262.58	11.6545
1265.47	19.5359
1268.37	15.9089
1271.26	14.761
1274.15	13.3921
1277.04	17.4653
1279.94	14.0122
1282.83	5.75098
1285.72	8.66235
1288.61	6.36548
1291.51	9.98804
1294.4	8.12427
1297.29	9.80102
1300.18	9.99805
