Measurement: Raman, 785 nm, unoriented, Raman Data Processed
Mineral: Nealite
Rruff sample: R060774
Ideal chemistry: Pb^2+^_4_Fe^2+^(As^3+^O_3_)_2_Cl_4_2H_2_O
Locality: Oxygon, Laurion, Greece
Source: Michael Scott
Description: Reddish brown acicular crystals coating a vug
Raman shift (cm-1)	intensity
198.666	0
201.559	20.896
204.452	3.537
207.344	17.637
210.237	41.165
213.13	62.508
216.023	61.034
218.915	22.795
221.808	65.882
224.701	171.889
227.593	252.736
230.486	277.771
233.379	256.716
236.271	216.332
239.164	250.248
242.057	251.6
244.95	271.971
247.842	318.935
250.735	341.557
253.628	366.573
256.52	355.959
259.413	350.146
262.306	273.287
265.198	235.095
268.091	207.405
270.984	171.815
273.877	161.955
276.769	181.695
279.662	159.575
282.555	64.606
285.447	126.345
288.34	96.403
291.233	42.084
294.125	55.543
297.018	147.007
299.911	220.087
302.804	297.25
305.696	369.27
308.589	490.022
311.482	563.852
314.374	639.031
317.267	681.1
320.16	697.821
323.052	716.297
325.945	669.346
328.838	684.509
331.731	605.25
334.623	504.741
337.516	395.701
340.409	322.914
343.301	230.719
346.194	200.717
349.087	142.358
351.979	110.845
354.872	60.253
357.765	40.982
360.658	29.21
363.55	0.524
366.443	14.273
369.336	4.194
372.228	19.931
375.121	25.054
378.014	86.355
380.906	69.015
383.799	68.785
386.692	122.636
389.585	213.196
392.477	317.049
395.37	367.617
398.263	356.728
401.155	374.889
404.048	325.339
406.941	269.804
409.833	265.984
412.726	253.402
415.619	237.958
418.512	234.582
421.404	191.429
424.297	186.802
427.19	157.665
430.082	152.282
432.975	147.566
435.868	77.599
438.76	87.917
441.653	105.659
444.546	53.154
447.439	17.914
450.331	3.961
453.224	15.142
456.117	8.685
459.009	39.625
461.902	2.773
464.795	47.886
467.687	65.958
470.58	69.687
473.473	75.454
476.366	49.587
479.258	37.984
482.151	10.716
485.044	7.058
487.936	18.907
490.829	2.155
493.722	8.173
496.614	39.767
499.507	27.801
502.4	46.637
505.293	42.415
508.185	38.337
511.078	21.078
513.971	37.506
516.863	2.533
519.756	18.448
522.649	23.369
525.541	14.615
528.434	44.011
531.327	11.244
534.219	23.685
537.112	16.487
540.005	76.274
542.898	93.542
545.79	115.341
548.683	118.423
551.576	124.437
554.468	96.7
557.361	48.458
560.254	26.676
563.146	20.77
566.039	34.907
568.932	23.656
571.825	25.772
574.717	19.299
577.61	29.997
580.503	24.28
583.395	27.621
586.288	12.803
589.181	11.802
592.073	5.583
594.966	15.104
597.859	49.057
600.752	41.208
603.644	51.414
606.537	117.214
609.43	98.628
612.322	121.915
615.215	127.479
618.108	110.991
621	183.59
623.893	167.032
626.786	210.56
629.679	194.275
632.571	192.301
635.464	172.041
638.357	174.245
641.25	112.308
644.142	156.465
647.035	61.064
649.928	88.236
652.82	74.237
655.713	79.869
658.606	86.263
661.498	72.853
664.391	38.72
667.284	40.504
670.177	99.19
673.069	89.321
675.962	95.189
678.855	106.884
681.747	137.405
684.64	173.246
687.533	253.984
690.425	317.055
693.318	377.212
696.211	538.145
699.104	648.211
701.996	817.837
704.889	939.913
707.782	1064.01
710.674	1004.09
713.567	921.53
716.46	778.341
719.352	670.779
722.245	601.287
725.138	592.038
728.031	588.965
730.923	669.121
733.816	604.277
736.709	561.018
739.601	425.713
742.494	411.573
745.387	228.106
748.279	270.936
751.172	222.421
754.065	188.458
756.958	140.862
759.85	158.816
762.743	173.567
765.636	115.987
768.528	92.16
771.421	123.963
774.314	127.614
777.206	87.179
780.099	106.91
782.992	134.395
785.885	141.288
788.777	148.716
791.67	200.74
794.563	242.976
797.455	281.396
800.348	340.154
803.241	455.766
806.133	611.936
809.026	669.814
811.919	570.541
814.812	543.035
817.704	421.433
820.597	404.01
823.49	294.282
826.382	283.658
829.275	264.216
832.168	232.73
835.06	211.028
837.953	204.912
840.846	163.536
843.738	200.211
846.631	183.528
849.524	170.676
852.417	141.518
855.309	157.542
858.202	104.571
861.095	102.079
863.987	71.866
866.88	68.637
869.773	99.146
872.665	89.204
875.558	23.015
878.451	24.498
881.344	46.429
884.236	36.723
887.129	35.549
890.022	13.833
892.914	41.693
895.807	47.4
898.7	11.386
901.592	5.577
904.485	16.531
907.378	25.823
910.271	24.732
913.163	5.223
916.056	27.923
918.949	17.655
921.841	21.223
924.734	10.949
927.627	17.31
930.519	3.929
933.412	8.656
936.305	68.16
939.198	29.453
942.09	4.781
944.983	4.945
947.876	24.465
950.768	27.059
953.661	23.695
956.554	23.734
959.446	10.674
962.339	1.187
965.232	23.529
968.125	12.082
971.017	18.08
973.91	17.521
976.803	4.932
979.695	9.885
982.588	34.657
985.481	5.373
988.373	21.647
991.266	28.974
994.159	0.21
997.052	21.517
999.944	41.605
1002.84	51.725
1005.73	61.661
1008.62	18.948
1011.51	41.645
1014.41	34.136
1017.3	10.456
1020.19	26.984
1023.09	1.122
1025.98	16.963
1028.87	14.889
1031.76	50.012
1034.66	45.427
1037.55	40.297
1040.44	50.296
1043.34	38.102
1046.23	23.113
1049.12	64.105
1052.01	29.47
1054.91	4.86
1057.8	23.72
1060.69	56.11
1063.58	31.701
1066.48	24.152
1069.37	0.58
1072.26	9.808
1075.15	31.058
1078.05	71.909
1080.94	67.07
1083.83	38.278
1086.72	23.674
1089.62	25.571
1092.51	19.762
1095.4	29.362
1098.3	14.454
1101.19	30.891
1104.08	33.611
1106.97	7.633
1109.87	14.564
1112.76	25.99
1115.65	35.02
1118.55	43.977
1121.44	72.961
1124.33	50.733
1127.22	43.024
1130.12	5.917
1133.01	7.324
1135.9	32.799
1138.79	7.7
1141.69	10.669
1144.58	25.624
1147.47	36.284
1150.37	3.648
1153.26	100.16
1156.15	65.195
1159.04	58.047
1161.93	22.113
1164.83	33.227
1167.72	23.246
1170.61	15.096
1173.51	14.981
1176.4	11.196
1179.29	30.101
1182.18	32.617
1185.08	32.196
1187.97	37.039
1190.86	84.475
1193.76	26.956
1196.65	33.461
1199.54	71.378
1202.43	10.552
1205.33	7.009
1208.22	24.801
1211.11	25.656
1214	40.935
1216.9	25.276
1219.79	28.665
1222.68	45.938
1225.58	70.908
1228.47	71.447
1231.36	54.154
1234.25	50.463
1237.15	17.117
1240.04	17.53
1242.93	12.392
1245.82	25.737
1248.72	5.048
1251.61	59.614
1254.5	21.138
1257.39	12.662
1260.29	51.638
1263.18	17.472
1266.07	2.213
