Measurement: Raman, 785 nm, unoriented, Raman Data Processed
Mineral: Nekoite
Rruff sample: R070475
Ideal chemistry: Ca_3_Si_6_O_15_7H_2_O
Locality: LaCotita mine, Inca de Oro, Chile
Source: Bob Jenkins
Description: Globular to radial aggregates of thin white acicular crystals associated with colorless apophyllite
Measured chemistry: Ca_3.00_Si_6.00_O_15_Â·5.83H_2_O ; H_2_O estimated by diference
Raman shift (cm-1)	intensity
155.148	0
158.041	50.1991
160.934	48.6687
163.826	113.523
166.719	104.128
169.612	54.116
172.504	63.8212
175.397	4.71143
178.29	54.8783
181.182	59.4656
184.075	82.8765
186.968	57.6581
189.861	43.7874
192.753	53.1901
195.646	33.6812
198.539	12.0765
201.431	1.34064
204.324	27.5709
207.217	9.65436
210.109	7.65033
213.002	10.2909
215.895	33.1558
218.787	33.6675
221.68	65.3735
224.573	44.8765
227.466	76.8699
230.358	101.804
233.251	129.048
236.144	150.954
239.036	160.9
241.929	137.824
244.822	182.649
247.714	129.635
250.607	134.788
253.5	148.968
256.393	128.603
259.285	164.269
262.178	161.722
265.071	149.103
267.963	153.49
270.856	106.141
273.749	119.397
276.642	122.144
279.534	128.238
282.427	149.62
285.32	138.027
288.212	131.778
291.105	150.226
293.998	121.938
296.89	124.272
299.783	84.272
302.676	69.5152
305.568	48.671
308.461	39.3697
311.354	43.6516
314.247	22.1282
317.139	25.355
320.032	18.7993
322.925	36.5226
325.817	39.8523
328.71	57.6555
331.603	67.617
334.495	110.828
337.388	136.743
340.281	147.276
343.174	169.094
346.066	145.188
348.959	127.013
351.852	34.4869
354.744	15.807
357.637	32.8624
360.53	14.3391
363.422	0.578857
366.315	6.0578
369.208	5.13513
372.101	13.6243
374.993	1.20032
377.886	16.6569
380.779	21.5356
383.671	36.2698
386.564	65.4564
389.457	90.9924
392.349	113.68
395.242	133.25
398.135	161.208
401.027	123.471
403.92	146.145
406.813	131.117
409.706	96.9037
412.598	127.688
415.491	95.2626
418.384	95.2922
421.276	93.2625
424.169	116.482
427.062	87.6352
429.954	82.973
432.847	90.269
435.74	84.3331
438.633	75.9946
441.525	53.6091
444.418	46.868
447.311	16.298
450.203	10.7957
453.096	19.4584
455.989	7.15845
458.882	18.9888
461.774	16.064
464.667	0.279663
467.56	5.02393
470.452	3.42004
473.345	3.82825
476.238	15.6926
479.13	22.9827
482.023	17.0065
484.916	23.0056
487.808	35.7907
490.701	53.6178
493.594	58.2179
496.487	55.3698
499.379	69.0881
502.272	76.3337
505.165	77.3602
508.057	84.4673
510.95	97.3994
513.843	111.309
516.736	148.923
519.628	140.876
522.521	189.437
525.414	163.187
528.306	164.553
531.199	118.302
534.092	74.3295
536.984	39.4239
539.877	23.8314
542.77	22.6038
545.662	2.19836
548.555	4.91467
551.448	1.64325
554.341	3.49322
557.233	5.58923
560.126	7.73999
563.019	26.5985
565.911	24.9432
568.804	88.0314
571.697	133.842
574.589	182.278
577.482	234.411
580.375	298.207
583.268	394.757
586.16	446.963
589.053	427.355
591.946	387.843
594.838	282.293
597.731	201.536
600.624	139.889
603.516	97.7843
606.409	44.9991
609.302	36.2418
612.194	28.5194
615.087	10.899
617.98	13.7487
620.873	4.57965
623.765	28.5674
626.658	9.91766
629.551	28.8234
632.443	48.9741
635.336	70.0682
638.229	105.35
641.121	146.075
644.014	187.715
646.907	234.541
649.8	268.899
652.692	286.954
655.585	298.559
658.478	283.108
661.37	247.718
664.263	222.739
667.156	171.745
670.048	121.348
672.941	89.7719
675.834	80.8581
678.727	46.5281
681.619	45.6486
684.512	29.0679
687.405	38.5866
690.297	19.1721
693.19	2.34802
696.083	7.22943
698.976	13.6289
701.868	8.77057
704.761	3.04782
707.654	5.08646
710.546	23.4633
713.439	0.355865
716.332	3.2746
719.224	14.9342
722.117	19.4457
725.01	8.03012
727.903	4.82935
730.795	26.3473
733.688	6.58865
736.581	24.294
739.473	19.4929
742.366	10.2786
745.259	6.13657
748.151	35.3693
751.044	22.0686
753.937	10.9956
756.829	23.9285
759.722	27.6428
762.615	14.7167
765.508	39.1343
768.4	31.372
771.293	36.1354
774.186	45.9637
777.078	37.999
779.971	18.9636
782.864	13.2996
785.756	20.5824
788.649	13.547
791.542	15.2454
794.434	10.8814
797.327	10.9094
800.22	22.7584
803.113	19.918
806.005	16.8334
808.898	9.2352
811.791	26.8811
814.683	9.67304
817.576	7.01459
820.469	7.57236
823.361	9.38641
826.254	12.1514
829.147	18.1732
832.04	11.1836
834.932	20.9696
837.825	28.1751
840.718	12.5537
843.61	8.98401
846.503	20.9312
849.396	17.8353
852.288	2.57519
855.181	14.4351
858.074	4.62341
860.967	2.64261
863.859	7.68198
866.752	12.421
869.645	6.57916
872.537	6.16876
875.43	4.45288
878.323	12.8357
881.216	26.3651
884.108	19.6375
887.001	5.64435
889.894	10.267
892.786	4.00394
895.679	23.7598
898.572	10.2244
901.464	30.0076
904.357	25.4708
907.25	21.0087
910.143	13.1479
913.035	13.8518
915.928	27.7346
918.821	15.4373
921.713	6.32397
924.606	4.67883
927.499	3.55393
930.391	26.2137
933.284	27.6504
936.177	25.4707
939.069	21.1052
941.962	12.7324
944.855	15.8733
947.747	11.1868
950.64	6.43234
953.533	3.47861
956.426	3.776
959.318	22.2557
962.211	18.6552
965.104	3.33624
967.996	24.4354
970.889	60.2429
973.782	35.5117
976.674	41.189
979.567	41.3036
982.46	47.0012
985.353	37.5552
988.245	46.5514
991.138	20.6908
994.031	20.6089
996.923	13.9265
999.816	14.1035
1002.71	17.0556
1005.6	7.11963
1008.49	2.35168
1011.39	13.9639
1014.28	6.48386
1017.17	4.0397
1020.07	22.795
1022.96	29.7592
1025.85	27.3135
1028.74	36.6458
1031.64	39.937
1034.53	44.1445
1037.42	26.0618
1040.31	24.7797
1043.21	43.6245
1046.1	43.3435
1048.99	32.5197
1051.88	36.4168
1054.78	46.1927
1057.67	45.399
1060.56	78.9318
1063.45	60.6598
1066.35	81.0997
1069.24	117.877
1072.13	165.571
1075.03	231.487
1077.92	282.87
1080.81	343.929
1083.7	345.403
1086.6	339.821
1089.49	236.596
1092.38	173.843
1095.28	132.317
1098.17	98.2736
1101.06	69.6415
1103.95	58.4888
1106.85	41.565
1109.74	34.3057
1112.63	42.1386
1115.52	15.6754
1118.42	17.5247
1121.31	17.0308
1124.2	19.3509
1127.1	22.6553
1129.99	8.14975
1132.88	1.08081
1135.77	6.69492
1138.67	10.9641
1141.56	7.19263
1144.45	4.70047
1147.34	10.0023
1150.24	2.01041
1153.13	14.539
1156.02	0.388214
1158.91	11.823
1161.81	4.69656
1164.7	10.4345
1167.59	11.3444
1170.48	3.6348
1173.38	20.2939
1176.27	7.86957
1179.16	1.18378
1182.06	8.45502
1184.95	31.873
1187.84	2.37625
1190.73	13.6061
1193.63	2.43695
1196.52	10.0916
1199.41	15.4213
1202.31	6.07556
1205.2	16.9718
1208.09	17.6735
1210.98	7.61295
1213.88	26.319
1216.77	18.0671
1219.66	16.1772
1222.55	21.0194
1225.45	12.2854
1228.34	27.5874
1231.23	23.369
1234.12	2.20496
1237.02	15.4034
1239.91	3.71396
1242.8	22.5648
1245.69	7.54443
1248.59	10.1255
1251.48	2.23956
1254.37	16.3138
1257.27	10.6278
1260.16	0.631195
1263.05	3.67075
