Measurement: Raman, 532 nm, unoriented, Raman Data Processed
Mineral: Nekoite
Rruff sample: R070475
Ideal chemistry: Ca_3_Si_6_O_15_7H_2_O
Locality: LaCotita mine, Inca de Oro, Chile
Source: Bob Jenkins
Description: Globular to radial aggregates of thin white acicular crystals associated with colorless apophyllite
Measured chemistry: Ca_3.00_Si_6.00_O_15_Â·5.83H_2_O ; H_2_O estimated by diference
Raman shift (cm-1)	intensity
155.459	0
158.351	74.6343
161.244	18.9806
164.137	45.5673
167.029	5.81043
169.922	29.0695
172.815	38.0514
175.708	41.2882
178.6	39.5243
181.493	48.6266
184.386	67.8144
187.278	88.2622
190.171	66.4269
193.064	48.5449
195.957	47.4414
198.849	26.8384
201.742	27.3936
204.635	13.0033
207.527	2.65002
210.42	35.0203
213.313	15.1504
216.205	2.91321
219.098	8.74219
221.991	14.1215
224.883	65.519
227.776	89.853
230.669	131.412
233.562	209.821
236.454	203.579
239.347	229.186
242.24	242.508
245.132	218.296
248.025	181.076
250.918	156.327
253.81	168.093
256.703	134.531
259.596	160.651
262.489	126.558
265.381	148.129
268.274	106.504
271.167	118.098
274.059	137.71
276.952	146.8
279.845	174.318
282.738	197.826
285.63	211.807
288.523	221.517
291.416	206.591
294.308	220.904
297.201	187.866
300.094	175.675
302.986	182.6
305.879	145.148
308.772	105.299
311.664	53.7644
314.557	42.0378
317.45	24.1482
320.343	2.76758
323.235	1.65918
326.128	18.1711
329.021	45.2201
331.913	39.5039
334.806	83.3101
337.699	136.619
340.591	149.277
343.484	151.648
346.377	128.364
349.27	140.874
352.162	76.167
355.055	88.7499
357.948	51.5585
360.84	15.1797
363.733	17.5931
366.626	3.54175
369.519	0.574097
372.411	11.8285
375.304	13.7333
378.197	1.84131
381.089	55.4387
383.982	134.234
386.875	193.717
389.767	276.478
392.66	356.179
395.553	419.42
398.446	404.515
401.338	376.612
404.231	281.153
407.124	174.74
410.016	153.998
412.909	130.653
415.802	152.808
418.695	100.826
421.587	70.9946
424.48	100.766
427.373	128.862
430.265	163.73
433.158	177.227
436.051	177.477
438.943	158.971
441.836	151.579
444.729	129.836
447.622	92.3854
450.514	54.4276
453.407	61.4022
456.3	72.819
459.192	91.6207
462.085	94.1107
464.978	109.073
467.87	46.7642
470.763	28.8713
473.656	4.19275
476.548	13.4023
479.441	21.9573
482.334	20.1727
485.227	4.31946
488.119	6.42883
491.012	18.2013
493.905	17.6837
496.797	4.7279
499.69	46.8048
502.583	13.8931
505.476	11.886
508.368	68.5735
511.261	111.323
514.154	119.396
517.046	166.36
519.939	187.867
522.832	214.162
525.724	214.128
528.617	151.63
531.51	134.559
534.403	82.2878
537.295	73.7688
540.188	67.6317
543.081	17.6497
545.973	43.5693
548.866	22.408
551.759	6.82678
554.651	5.98157
557.544	11.2212
560.437	23.764
563.33	35.7748
566.222	51.1862
569.115	109.866
572.008	132.43
574.9	179.896
577.793	260.006
580.686	322.281
583.578	390.843
586.471	399.479
589.364	396.399
592.256	303.365
595.149	238.096
598.042	145.562
600.935	106.555
603.827	69.3014
606.72	52.2544
609.613	28.9292
612.505	32.2881
615.398	10.3987
618.291	3.3269
621.183	32.8638
624.076	30.6483
626.969	30.9261
629.862	43.7028
632.754	57.795
635.647	103.776
638.54	133.326
641.432	341.448
644.325	209.876
647.218	238.764
650.111	319.725
653.003	330.315
655.896	339.737
658.789	320.021
661.681	271.61
664.574	256.508
667.467	235.727
670.36	146.201
673.252	117.747
676.145	92.3262
679.038	39.4862
681.93	68.5644
684.823	44.5624
687.716	7.14551
690.608	12.8645
693.501	1.35913
696.394	13.3657
699.287	19.5891
702.179	20.39
705.072	3.08813
707.965	8.29236
710.857	19.1603
713.75	17.8044
716.643	20.8492
719.535	10.7277
722.428	9.01733
725.321	9.71545
728.213	11.963
731.106	19.3416
733.999	23.7815
736.892	19.6445
739.784	34.9957
742.677	41.0701
745.57	44.5157
748.462	60.511
751.355	46.9633
754.248	24.347
757.14	66.2245
760.033	45.5425
762.926	67.0577
765.819	59.8917
768.711	38.6819
771.604	62.4412
774.497	59.3799
777.389	47.0942
780.282	58.3253
783.175	64.2272
786.067	34.8501
788.96	23.8876
791.853	50.16
794.746	0.782471
797.638	8.06592
800.531	11.9348
803.424	38.9998
806.316	26.543
809.209	20.6748
812.102	1.32434
814.995	7.03357
817.887	17.6675
820.78	28.7105
823.673	11.3411
826.565	13.9276
829.458	26.2485
832.351	10.419
835.244	21.3799
838.136	17.7904
841.029	12.3013
843.922	14.0046
846.814	28.4664
849.707	24.422
852.6	31.2621
855.492	3.17627
858.385	40.1668
861.278	26.7701
864.17	15.6453
867.063	33.5138
869.956	45.8687
872.849	2.37671
875.741	31.9901
878.634	41.2528
881.527	35.1288
884.419	12.1382
887.312	37.9882
890.205	35.5612
893.097	31.6553
895.99	48.5221
898.883	34.0322
901.776	20.9904
904.668	27.309
907.561	43.5944
910.454	37.5493
913.346	11.9586
916.239	19.2166
919.132	17.7297
922.024	41.256
924.917	4.31409
927.81	19.5963
930.703	23.0725
933.595	19.7521
936.488	6.29858
939.381	23.4048
942.273	11.4747
945.166	19.5612
948.059	10.6627
950.952	23.5377
953.844	16.5591
956.737	11.555
959.63	34.5411
962.522	36.5869
965.415	51.298
968.308	42.2723
971.2	35.584
974.093	71.0968
976.986	77.6484
979.879	42.1433
982.771	12.844
985.664	34.6418
988.557	41.8424
991.449	26.5173
994.342	31.8862
997.235	4.27564
1000.13	17.4004
1003.02	2.71692
1005.91	8.30786
1008.81	29.2595
1011.7	17.2446
1014.59	10.2704
1017.48	35.5031
1020.38	13.1776
1023.27	35.0332
1026.16	22.7307
1029.05	20.705
1031.95	27.5577
1034.84	14.4133
1037.73	9.4718
1040.62	5.56494
1043.52	11.0815
1046.41	50.9222
1049.3	72.3487
1052.2	92.0055
1055.09	102.147
1057.98	137.615
1060.87	144.983
1063.77	167.337
1066.66	196.227
1069.55	191.18
1072.44	282.208
1075.34	299.52
1078.23	330.898
1081.12	346.378
1084.02	320.532
1086.91	314.831
1089.8	256.549
1092.69	246.36
1095.59	188.97
1098.48	163.538
1101.37	110.644
1104.27	119.945
1107.16	64.0374
1110.05	68.5454
1112.94	10.0312
1115.84	39.4208
1118.73	24.4716
1121.62	36.8308
1124.51	11.3477
1127.41	16.7922
1130.3	22.8636
1133.19	19.5868
1136.08	20.9248
1138.98	29.3289
1141.87	9.9646
1144.76	30.5111
1147.65	12.3855
1150.55	19.5863
1153.44	19.5986
1156.33	3.84863
1159.23	7.70557
1162.12	0.421387
1165.01	6.64038
1167.9	3.38806
1170.8	9.91455
1173.69	12.4076
1176.58	20.7098
1179.47	13.1283
1182.37	35.9674
1185.26	29.9486
1188.15	19.0425
1191.05	15.4579
1193.94	27.2284
1196.83	23.24
1199.72	25.8506
1202.62	12.3817
1205.51	23.1577
1208.4	20.0068
1211.3	23.7411
1214.19	23.4729
1217.08	36.5421
1219.97	43.7388
1222.87	45.5242
1225.76	48.4913
1228.65	45.0629
1231.54	62.8946
1234.44	21.1102
1237.33	22.0627
1240.22	24.6216
1243.11	59.1017
1246.01	11.1642
1248.9	34.1066
1251.79	26.4434
1254.68	31.6813
1257.58	30.1921
1260.47	18.6766
1263.36	30.965
1266.26	43.5746
1269.15	10.4763
1272.04	31.1945
1274.93	2.3197
1277.83	44.3009
1280.72	42.7308
1283.61	19.2752
1286.51	10.4844
1289.4	2.41126
