Measurement: Raman, 780 nm, unoriented, Raman Data Processed
Mineral: Nelenite
Rruff sample: R120150
Ideal chemistry: Mn^2+^_16_As^3+^_3_Si_12_O_36_(OH)_17_
Locality: Trotter mine, Franklin, New Jersey, USA
Source: Rock Currier
Description: Massive dark brown to pale brown grains
Raman shift (cm-1)	intensity
95.899	0
99.2738	8.71747
102.649	0.23175
106.023	7.69342
109.398	0.914551
112.773	4.85236
116.148	7.20636
119.523	6.40247
122.897	10.4518
126.272	5.38275
129.647	5.63605
133.022	1.11749
136.397	1.02161
139.772	2.19061
143.146	0.810181
146.521	4.45544
149.896	6.32196
153.271	4.00263
156.646	2.60187
160.02	2.94428
163.395	8.46429
166.77	2.64142
170.145	3.67871
173.52	5.27313
176.894	4.81152
180.269	7.59772
183.644	12.5828
187.019	13.9055
190.394	17.3558
193.769	21.5282
197.143	25.7463
200.518	33.2358
203.893	45.0671
207.268	48.2557
210.643	31.4349
214.018	17.5881
217.392	9.30664
220.767	8.3548
224.142	8.85083
227.517	6.64893
230.892	6.06323
234.266	6.85468
237.641	6.4856
241.016	2.98492
244.391	4.40796
247.766	6.54889
251.14	4.61145
254.515	3.05066
257.89	3.22076
261.265	4.77197
264.64	7.4599
268.014	11.729
271.389	8.59314
274.764	2.88562
278.139	5.58704
281.514	4.836
284.889	0.088501
288.263	1.82208
291.638	0.558105
295.013	1.31708
298.388	2.43213
301.763	1.87799
305.137	4.26886
308.512	3.1424
311.887	4.59753
315.262	8.60748
318.637	13.0317
322.012	17.6226
325.386	17.9596
328.761	26.5651
332.136	27.6351
335.511	23.9938
338.886	20.2243
342.26	18.8703
345.635	10.1249
349.01	9.20148
352.385	5.64612
355.76	3.49921
359.135	2.56928
362.509	1.29163
365.884	1.5163
369.259	3.27075
372.634	0.855347
376.009	1.18921
379.383	0.659668
382.758	0.751892
386.133	0.105774
389.508	1.22363
392.883	3.94226
396.257	2.28015
399.632	4.40546
403.007	7.29053
406.382	9.81927
409.757	14.5324
413.132	18.8118
416.506	22.5754
419.881	25.1072
423.256	20.7762
426.631	16.5513
430.006	18.3843
433.38	11.9097
436.755	10.3448
440.13	5.48938
443.505	3.45435
446.88	1.49835
450.255	2.86054
453.629	0.342468
457.004	1.62579
460.379	2.36609
463.754	1.19183
467.129	1.09644
470.503	3.013
473.878	4.04218
477.253	4.70825
480.628	7.06409
484.003	14.1163
487.377	14.736
490.752	23.2817
494.127	24.4329
497.502	27.8552
500.877	23.2519
504.252	18.1612
507.626	13.0941
511.001	9.30743
514.376	6.9928
517.751	5.14069
521.126	2.66101
524.5	0.105896
527.875	2.0921
531.25	1.13361
534.625	2.20581
538	0.490112
541.375	2.01337
544.749	2.51025
548.124	0.539612
551.499	0.287659
554.874	0.501526
558.249	0.198425
561.623	1.25806
564.998	1.10175
568.373	1.33667
571.748	1.84357
575.123	3.49664
578.497	0.005188
581.872	0.123108
585.247	4.258
588.622	3.03131
591.997	3.70898
595.371	9.13031
598.746	13.9734
602.121	20.5596
605.496	25.5779
608.871	37.1827
612.246	46.8541
615.62	35.2071
618.995	19.0819
622.37	12.4626
625.745	8.0589
629.12	5.3175
632.494	4.53943
635.869	4.80255
639.244	5.22919
642.619	4.17102
645.994	5.6908
649.369	3.50446
652.743	2.07715
656.118	2.43744
659.493	3.71252
662.868	3.67511
666.243	3.42493
669.617	1.57873
672.992	2.41986
676.367	5.58429
679.742	4.82269
683.117	3.60284
686.491	0.829102
689.866	0.8479
693.241	0.062439
696.616	2.44995
699.991	1.60913
703.366	1.04504
706.74	0.715454
710.115	3.83063
713.49	2.927
716.865	6.33685
720.24	3.53479
723.614	5.74127
726.989	5.77277
730.364	7.39697
733.739	6.30972
737.114	6.80792
740.489	4.66992
743.863	1.65222
747.238	1.38452
750.613	3.47376
753.988	1.66519
757.363	1.71686
760.737	1.04221
764.112	0.814728
767.487	2.0928
770.862	2.45435
774.237	1.24594
777.611	2.3259
780.986	1.14542
784.361	1.5123
787.736	2.14728
791.111	2.12756
794.486	3.54352
797.86	3.62076
801.235	0.705139
804.61	3.61014
807.985	3.8902
811.36	4.24051
814.734	3.25357
818.109	3.44842
821.484	4.33807
824.859	2.91626
828.234	2.39691
831.609	3.41364
834.983	2.05078
838.358	2.62305
841.733	0.379852
845.108	2.3588
848.483	2.20877
851.857	1.77283
855.232	2.87814
858.607	2.09552
861.982	2.28851
865.357	3.54602
868.731	3.01459
872.106	2.21112
875.481	0.689545
878.856	0.728607
882.231	0.261292
885.606	2.47788
888.98	0.711304
892.355	1.62164
895.73	0.430664
899.105	2.7121
902.48	0.551178
905.854	1.04309
909.229	1.95056
912.604	1.45456
915.979	1.02762
919.354	2.00857
922.729	2.84055
926.103	1.67893
929.478	1.19321
932.853	1.35501
936.228	2.03662
939.603	1.15286
942.977	2.78354
946.352	0.147369
949.727	1.11121
953.102	0.72406
956.477	1.57605
959.851	2.69015
963.226	1.95239
966.601	0.07077
969.976	2.22726
973.351	2.39771
976.726	0.408844
980.1	0.038147
983.475	1.51672
986.85	1.48737
990.225	1.37198
993.6	0.967712
996.974	1.28241
1000.35	1.10477
1003.72	2.43274
1007.1	2.31726
1010.47	2.01071
1013.85	2.07492
1017.22	3.73941
1020.6	7.54965
1023.97	5.96094
1027.35	8.04953
1030.72	15.0041
1034.1	12.504
1037.47	8.74606
1040.85	6.07709
1044.22	3.26196
1047.6	3.71024
1050.97	2.41098
1054.35	2.98431
1057.72	1.54651
1061.1	4.35577
1064.47	3.21426
1067.85	1.79941
1071.22	2.04987
1074.6	1.45548
1077.97	1.48575
1081.35	2.23901
1084.72	1.16898
1088.09	2.45334
1091.47	1.87708
1094.84	0.98822
1098.22	0.134827
1101.59	1.29629
1104.97	1.02829
1108.34	2.07892
1111.72	0.412231
1115.09	0.369629
1118.47	0.028137
1121.84	1.35596
1125.22	0.216278
1128.59	0.905029
1131.97	1.10245
1135.34	1.44769
1138.72	1.04489
1142.09	0.44873
1145.47	1.18817
1148.84	3.14471
1152.22	2.75873
1155.59	2.14014
1158.97	2.0097
1162.34	2.14474
1165.71	1.21347
1169.09	2.52557
1172.46	3.94852
1175.84	2.89889
1179.21	2.81076
1182.59	3.43097
1185.96	2.05643
1189.34	2.95883
1192.71	2.20499
1196.09	3.86774
1199.46	1.99271
1202.84	3.55887
1206.21	2.22601
1209.59	2.97363
1212.96	2.52799
1216.34	1.17218
1219.71	1.15985
1223.09	0.093231
1226.46	2.29642
1229.84	0.978119
1233.21	1.79782
1236.59	0.976074
1239.96	1.26126
1243.34	0.973511
1246.71	0.456635
1250.09	0.973053
1253.46	1.01001
1256.84	0.836151
1260.21	2.86697
1263.59	3.67023
1266.96	1.55005
1270.33	1.76682
1273.71	1.78262
1277.08	0.070007
1280.46	1.14246
1283.83	0.552795
