Measurement: Raman, 785 nm, unoriented, Raman Data Processed
Mineral: Neltnerite
Rruff sample: R060726
Ideal chemistry: CaMn^3+^_6_O_8_(SiO_4_)
Locality: Manganese Creek, Keweenaw County, Michigan, USA
Source: Bob Jenkins
Description: Black submetallic gangue
Raman shift (cm-1)	intensity
160.097	0
162.99	90.855
165.883	142.341
168.775	156.709
171.668	207.269
174.561	85.7361
177.454	63.5527
180.346	19.207
183.239	0.550049
186.132	0.584961
189.024	1.70947
191.917	48.8352
194.81	0.400635
197.702	134.538
200.595	214.682
203.488	295.331
206.38	379.957
209.273	472.32
212.166	564.814
215.059	637.431
217.951	690.223
220.844	697.715
223.737	775.894
226.629	792.453
229.522	738.245
232.415	773.895
235.307	807.005
238.2	821.445
241.093	856.715
243.986	844.943
246.878	801.691
249.771	785.134
252.664	631.575
255.556	449.304
258.449	385.976
261.342	258.076
264.234	180.821
267.127	156.715
270.02	89.2532
272.913	79.9736
275.805	76.2647
278.698	74.7681
281.591	84.3035
284.483	93.792
287.376	112.595
290.269	194.639
293.161	351.669
296.054	459.115
298.947	539.542
301.84	429.733
304.732	327.963
307.625	191.702
310.518	78.9153
313.41	45.73
316.303	4.15894
319.196	31.3474
322.089	44.3023
324.981	37.9353
327.874	156.547
330.767	261.102
333.659	297.12
336.552	343.538
339.445	320.259
342.337	231.504
345.23	189.249
348.123	164.042
351.016	115.784
353.908	155.978
356.801	165.641
359.694	158.494
362.586	181.21
365.479	233.262
368.372	272.774
371.264	320.671
374.157	374.376
377.05	355.044
379.943	316.884
382.835	266.91
385.728	234.819
388.621	163.238
391.513	135.41
394.406	123.212
397.299	161.99
400.191	116.783
403.084	93.5644
405.977	60.0825
408.87	28.7847
411.762	2.38843
414.655	6.7124
417.548	6.26123
420.44	10.5759
423.333	15.9175
426.226	4.14526
429.118	8.10864
432.011	28.6204
434.904	8.89233
437.797	17.2129
440.689	53.6807
443.582	74.6492
446.475	169.457
449.367	324.053
452.26	299.419
455.153	413.202
458.045	538.884
460.938	728.441
463.831	934.889
466.724	1239.81
469.616	1472.2
472.509	1666.3
475.402	1720.37
478.294	1687.95
481.187	1559.37
484.08	1427.93
486.972	1221.63
489.865	1166.88
492.758	1103.95
495.651	1023.04
498.543	1051.53
501.436	1085.78
504.329	1234.57
507.221	1392.55
510.114	1481.51
513.007	1579.11
515.899	1578.63
518.792	1459.95
521.685	1203.72
524.578	937.023
527.47	708.31
530.363	455.107
533.256	289.249
536.148	180.622
539.041	138.869
541.934	88.6062
544.826	32.9651
547.719	21.9136
550.612	50.9951
553.505	4.18237
556.397	24.5913
559.29	23.9434
562.183	84.1099
565.075	101.583
567.968	101.418
570.861	106.076
573.753	172.518
576.646	137.819
579.539	150.534
582.432	80.0644
585.324	56.5586
588.217	67.4749
591.11	18.3042
594.002	40.0889
596.895	17.6455
599.788	35.5593
602.68	133.507
605.573	230.02
608.466	252.369
611.359	414.834
614.251	505.557
617.144	616.562
620.037	648.971
622.929	633.199
625.822	643.193
628.715	554.37
631.607	476.05
634.5	394.607
637.393	332.307
640.286	265.812
643.178	232.291
646.071	177.059
648.964	184.47
651.856	201.89
654.749	128.619
657.642	128.157
660.534	131.071
663.427	67.697
666.32	88.543
669.213	118.21
672.105	46.6909
674.998	86.1343
677.891	141.987
680.783	157.386
683.676	170.087
686.569	197.062
689.461	240.374
692.354	246.017
695.247	238.3
698.14	229.979
701.032	144.435
703.925	113.198
706.818	53.8284
709.71	96.6072
712.603	128.293
715.496	63.0745
718.388	12.894
721.281	31.5156
724.174	19.2324
727.067	39.1482
729.959	1.98242
732.852	2.05566
735.745	0.718018
738.637	28.6558
741.53	22.157
744.423	1.3208
747.315	56.2024
750.208	8.90027
753.101	15.5373
755.994	43.7764
758.886	16.4326
761.779	50.1382
764.672	48.611
767.564	11.0726
770.457	7.31689
773.35	52.4838
776.242	51.2039
779.135	38.029
782.028	56.8575
784.92	40.6627
787.813	63.8529
790.706	107.839
793.599	99.3956
796.491	106.137
799.384	32.5347
802.277	50.5107
805.169	45.4354
808.062	36.5631
810.955	85.4951
813.847	52.962
816.74	58.8332
819.633	61.7786
822.526	26.873
825.418	82.1725
828.311	48.8623
831.204	27.0459
834.096	58.5542
836.989	58.6628
839.882	55.8113
842.774	64.2924
845.667	46.868
848.56	13.2449
851.453	51.4524
854.345	38.1681
857.238	51.5148
860.131	47.0885
863.023	4.00195
865.916	5.78186
868.809	32.3328
871.701	36.4846
874.594	6.98987
877.487	48.5519
880.38	43.9181
883.272	3.26587
886.165	5.38855
889.058	3.24719
891.95	38.727
894.843	38.027
897.736	112.159
900.628	63.2897
903.521	34.4813
906.414	100.438
909.307	106.532
912.199	104.365
915.092	89.3909
917.985	97.464
920.877	104.482
923.77	158.639
926.663	221.696
929.555	228.012
932.448	275.386
935.341	347.178
938.234	411.816
941.126	416.485
944.019	439.366
946.912	453.864
949.804	425.373
952.697	436.041
955.59	449.419
958.482	360.873
961.375	326.988
964.268	297.68
967.161	233.936
970.053	223.397
972.946	184.665
975.839	108.609
978.731	141.512
981.624	73.8206
984.517	111.598
987.409	69.0424
990.302	35.2321
993.195	36.9165
996.088	6.3269
998.98	66.2367
1001.87	40.0858
1004.77	58.4921
1007.66	38.9031
1010.55	53.9377
1013.44	34.6654
1016.34	44.5377
1019.23	52.1844
1022.12	4.3042
1025.02	3.7876
1027.91	8.38696
1030.8	36.4954
1033.69	27.2998
1036.59	17.2128
1039.48	37.3015
1042.37	35.2141
1045.26	36.4484
1048.16	20.4395
1051.05	18.1765
1053.94	21.9319
1056.83	68.7953
1059.73	58.8387
1062.62	8.18152
1065.51	10.3453
1068.4	13.4047
1071.3	46.3967
1074.19	49.4989
1077.08	4.71484
1079.98	49.7176
1082.87	68.8413
1085.76	8.59375
1088.65	37.0249
1091.55	23.7245
1094.44	36.0039
1097.33	7.91016
1100.22	5.06702
1103.12	59.5125
1106.01	24.0471
1108.9	35.6761
1111.8	48.6265
1114.69	21.0387
1117.58	68.532
1120.47	44.7887
1123.37	38.2321
1126.26	30.6379
1129.15	32.119
1132.04	67.5957
1134.94	24.3256
1137.83	41.1883
1140.72	15.6107
1143.62	41.2112
1146.51	22.5923
1149.4	41.2806
1152.29	47.9158
1155.19	25.2748
1158.08	7.85718
1160.97	17.1831
1163.86	6.00403
1166.76	3.38245
1169.65	25.2159
1172.54	67.7107
1175.43	28.1191
1178.33	30.1003
1181.22	23.0812
1184.11	24.8544
1187.01	20.2545
1189.9	44.3502
1192.79	32.6809
1195.68	24.2894
1198.58	19.0358
1201.47	58.9124
1204.36	45.1034
1207.26	39.8678
1210.15	31.2393
1213.04	59.373
1215.93	61.1156
1218.83	60.9451
1221.72	31.184
1224.61	64.8265
1227.5	85.4707
1230.4	83.7886
1233.29	21.3835
1236.18	23.5225
1239.07	15.9303
1241.97	27.8829
1244.86	60.0704
1247.75	87.5834
1250.64	72.8666
1253.54	55.136
1256.43	38.6008
1259.32	71.5697
1262.22	56.2188
