Measurement: Raman, 532 nm, unoriented, Raman Data Processed
Mineral: Neltnerite
Rruff sample: R060726
Ideal chemistry: CaMn^3+^_6_O_8_(SiO_4_)
Locality: Manganese Creek, Keweenaw County, Michigan, USA
Source: Bob Jenkins
Description: Black submetallic gangue
Raman shift (cm-1)	intensity
154.789	0
157.682	9.14026
160.574	58.0696
163.467	62.6235
166.36	32.6616
169.252	2.62537
172.145	38.6438
175.038	30.2614
177.93	18.3383
180.823	14.4692
183.716	67.4447
186.608	108.281
189.501	116.327
192.394	140.588
195.286	215.741
198.179	233.603
201.072	362.835
203.965	434.39
206.857	552.389
209.75	627.838
212.643	753.578
215.535	754.257
218.428	705.944
221.321	707.907
224.214	633.741
227.106	628.966
229.999	568.931
232.892	532.753
235.784	490.366
238.677	493.452
241.57	453.711
244.462	475.959
247.355	435.094
250.248	397.381
253.141	311.052
256.033	237.519
258.926	154.922
261.819	103.007
264.711	65.093
267.604	57.8147
270.497	42.6531
273.389	37.3413
276.282	1.47876
279.175	12.2167
282.068	17.9971
284.96	15.8568
287.853	19.2159
290.746	33.2385
293.638	30.3271
296.531	73.1318
299.424	67.9255
302.316	52.7633
305.209	41.1779
308.102	4.79285
310.994	1.74414
313.887	3.7749
316.78	15.1769
319.672	26.5712
322.565	15.7047
325.458	87.6444
328.351	134.804
331.243	200.507
334.136	192.406
337.029	245.398
339.921	237.587
342.814	193.135
345.707	219.634
348.599	117.538
351.492	108.281
354.385	97.3512
357.278	71.5361
360.17	95.6773
363.063	79.3487
365.956	100.313
368.848	83.7522
371.741	77.9319
374.634	93.8179
377.526	34.6505
380.419	84.4594
383.312	51.212
386.205	92.5953
389.097	52.2181
391.99	41.8789
394.883	52.1107
397.775	41.3628
400.668	14.4774
403.561	2.35877
406.453	10.2438
409.346	12.2052
412.239	18.1499
415.132	4.73608
418.024	28.4258
420.917	13.8583
423.81	14.4785
426.702	17.5875
429.595	0.606689
432.488	7.41687
435.38	34.3635
438.273	12.3773
441.166	0.444092
444.059	25.8381
446.951	15.1143
449.844	38.0524
452.737	74.9225
455.629	56.8225
458.522	70.6094
461.415	110.672
464.307	128.157
467.2	124.834
470.093	203.257
472.986	168.359
475.878	187.845
478.771	167.431
481.664	183.246
484.556	185.739
487.449	174.948
490.342	142.635
493.234	165.91
496.127	155.533
499.02	165.837
501.913	160.205
504.805	180.82
507.698	207.212
510.591	212.192
513.483	230.266
516.376	232.434
519.269	252.943
522.161	180.802
525.054	127.253
527.947	122.076
530.839	73.3438
533.732	31.9092
536.625	35.0067
539.518	0.009521
542.41	9.07239
545.303	8.79211
548.196	24.3486
551.088	14.6094
553.981	3.73267
556.874	2.62671
559.766	13.1545
562.659	77.7447
565.552	61.4686
568.445	65.468
571.337	120.498
574.23	118.381
577.123	94.7073
580.015	93.0396
582.908	68.0592
585.801	53.6051
588.693	31.8932
591.586	57.1149
594.479	33.2998
597.372	69.5011
600.264	74.5725
603.157	114.07
606.05	182.537
608.942	203.577
611.835	263.322
614.728	329.166
617.62	346.613
620.513	395.201
623.406	365.562
626.299	342.51
629.191	277.568
632.084	252.82
634.977	198.699
637.869	163.865
640.762	154.929
643.655	124.21
646.547	155.763
649.44	134.836
652.333	111.535
655.226	127.536
658.118	153.343
661.011	134.437
663.904	176.616
666.796	184.34
669.689	220.224
672.582	266.456
675.474	354.551
678.367	375.649
681.26	448.703
684.153	548.167
687.045	550.923
689.938	561.096
692.831	592.53
695.723	517.946
698.616	480.356
701.509	342.291
704.401	270.349
707.294	185.068
710.187	183.788
713.08	103.895
715.972	105.926
718.865	64.3024
721.758	49.912
724.65	40.1466
727.543	18.6641
730.436	0.387695
733.328	16.6118
736.221	3.81372
739.114	5.80554
742.006	1.40161
744.899	1.12427
747.792	0.222778
750.685	22.907
753.577	7.09839
756.47	2.95862
759.363	6.97778
762.255	5.73157
765.148	20.9107
768.041	25.6934
770.933	16.2747
773.826	30.2219
776.719	22.3125
779.612	30.3365
782.504	58.6171
785.397	44.3411
788.29	23.9848
791.182	33.7887
794.075	31.8197
796.968	50.0946
799.86	58.3235
802.753	35.7534
805.646	50.1815
808.539	47.8702
811.431	55.4628
814.324	46.2687
817.217	38.8794
820.109	39.6149
823.002	12.1815
825.895	40.6804
828.787	32.2502
831.68	35.2728
834.573	34.1918
837.466	25.8785
840.358	28.6953
843.251	25.5675
846.144	21.7376
849.036	38.8099
851.929	15.675
854.822	37.3935
857.714	4.17603
860.607	1.80072
863.5	28.8145
866.393	11.2867
869.285	11.7497
872.178	8.95721
875.071	23.5805
877.963	7.66791
880.856	35.2555
883.749	6.76569
886.641	20.2549
889.534	29.4635
892.427	35.3692
895.32	47.4765
898.212	39.7466
901.105	45.8986
903.998	25.7148
906.89	48.962
909.783	22.5481
912.676	32.7639
915.568	29.525
918.461	56.5437
921.354	103.924
924.247	126.26
927.139	142.647
930.032	154.169
932.925	171.061
935.817	215.105
938.71	230.243
941.603	259.15
944.495	273.221
947.388	310.674
950.281	315.202
953.173	346.353
956.066	328.184
958.959	250.746
961.852	235.997
964.744	173.278
967.637	138.884
970.53	94.0668
973.422	72.4977
976.315	65.5814
979.208	40.8404
982.1	43.9801
984.993	22.6294
987.886	10.4507
990.779	8.84302
993.671	36.3091
996.564	4.90521
999.457	11.9123
1002.35	31.4745
1005.24	5.0871
1008.13	1.40131
1011.03	36.4936
1013.92	30.0785
1016.81	10.5189
1019.71	12.0273
1022.6	9.87323
1025.49	20.3717
1028.38	15.5022
1031.28	8.24103
1034.17	18.2151
1037.06	32.7965
1039.95	17.1037
1042.85	17.4956
1045.74	48.0909
1048.63	42.5603
1051.53	43.4126
1054.42	45.0405
1057.31	33.0471
1060.2	39.9484
1063.1	15.5025
1065.99	1.5379
1068.88	14.6859
1071.77	31.3087
1074.67	6.25726
1077.56	42.1529
1080.45	2.80347
1083.35	22.1158
1086.24	41.41
1089.13	55.0598
1092.02	35.1337
1094.92	1.37763
1097.81	41.9051
1100.7	25.1316
1103.59	47.042
1106.49	40.56
1109.38	22.8354
1112.27	39.5351
1115.16	48.4014
1118.06	43.8444
1120.95	44.3367
1123.84	46.0131
1126.73	1.12152
1129.63	20.3316
1132.52	41.5619
1135.41	22.564
1138.31	38.2985
1141.2	18.4522
1144.09	11.3947
1146.98	11.7958
1149.88	32.3128
1152.77	41.4026
1155.66	37.3211
1158.56	31.4135
1161.45	23.3835
1164.34	5.32324
1167.23	23.1663
1170.13	13.658
1173.02	28.4369
1175.91	25.0234
1178.8	20.9356
1181.7	26.3378
1184.59	37.2524
1187.48	3.84589
1190.38	1.74408
1193.27	38.3832
1196.16	18.9242
1199.05	32.7579
1201.94	44.123
1204.84	48.9464
1207.73	37.6292
1210.62	31.635
1213.52	39.1227
1216.41	62.4485
1219.3	29.1554
1222.19	15.0257
1225.09	47.2696
1227.98	3.96716
1230.87	51.3248
1233.77	46.7111
1236.66	47.4712
1239.55	37.4899
1242.44	41.1526
1245.34	14.7811
1248.23	30.3432
1251.12	5.56848
1254.01	34.0275
1256.91	52.731
1259.8	36.9132
1262.69	18.7335
1265.59	14.5104
1268.48	24.3783
1271.37	22.7699
1274.26	46.1388
1277.16	50.0189
1280.05	53.949
1282.94	41.4448
1285.83	28.2577
