Measurement: Raman, 780 nm, unoriented, Raman Data Processed
Mineral: Nepouite
Rruff sample: R120106
Ideal chemistry: Ni^2+^_3_Si_2_O_5_(OH)_4_
Locality: Nepoui mine, New Caledonia
Source: Bill & Sandy Bowman
Description: Green fine-grained massive associated with quartz
Raman shift (cm-1)	intensity
118.12	0
121.495	30.1074
124.87	37.2383
128.244	72.8262
131.619	92.2754
134.994	3.69922
138.369	22.5488
141.744	6.95117
145.119	20.2637
148.493	31.043
151.868	32.834
155.243	41.4082
158.618	58.25
161.993	33.2773
165.367	137.066
168.742	147.369
172.117	203.434
175.492	333.672
178.867	530.201
182.242	807.742
185.616	1051.92
188.991	961.973
192.366	668.725
195.741	375.531
199.115	192.523
202.49	123.775
205.865	148.572
209.24	122.736
212.615	65.1328
215.99	86.3457
219.364	43.5703
222.739	70.5059
226.114	86.6367
229.489	66.0977
232.864	53.25
236.238	70.7812
239.613	106.746
242.988	21.7871
246.363	39.8477
249.738	45.5879
253.113	25.8359
256.487	0.496094
259.862	50.2148
263.237	69.4941
266.612	23.416
269.987	80.7109
273.361	25.2598
276.736	91.2812
280.111	94.3613
283.486	91.0684
286.861	66.7598
290.236	100.754
293.61	77.9863
296.985	27.8086
300.36	12.9629
303.735	10.9238
307.11	32.8594
310.485	22.627
313.859	14.4785
317.234	67.25
320.609	27.0742
323.984	40.3672
327.359	5.29297
330.733	58.6152
334.108	5.9043
337.483	95.8535
340.858	64.7754
344.233	63.7559
347.608	101.555
350.982	150.326
354.357	211.615
357.732	316.582
361.107	360.94
364.482	252.676
367.856	211.713
371.231	215.385
374.606	106.144
377.981	113.459
381.356	96.8477
384.731	112.238
388.105	100.041
391.48	68.3965
394.855	73.8301
398.23	17.1895
401.605	39.8574
404.979	23.1992
408.354	2.46094
411.729	10.957
415.104	44.582
418.479	64.0449
421.853	134.275
425.228	77.8809
428.603	77.7891
431.978	131.978
435.353	93.0566
438.728	77.1231
442.102	79.6894
445.477	106.936
448.852	148.766
452.227	115.691
455.602	114.482
458.976	141.611
462.351	140.394
465.726	146.738
469.101	152.019
472.476	162.762
475.851	144.428
479.225	91.8184
482.6	82.9981
485.975	58.084
489.35	80.6777
492.725	57.7559
496.099	117.6
499.474	53.877
502.849	99.4883
506.224	66.0312
509.599	96.2734
512.973	89.2383
516.348	153.785
519.723	8.42188
523.098	36.3691
526.473	43.4805
529.848	38.4746
533.222	9.58203
536.597	34.9668
539.972	29.6289
543.347	5.00391
546.722	21.0879
550.096	11.9258
553.471	3.5957
556.846	16.3262
560.221	54.5664
563.596	11.6953
566.971	3.76953
570.345	47.9844
573.72	29.918
577.095	10.5508
580.47	77.0195
583.845	10.6602
587.22	80.6035
590.594	21.3887
593.969	34.6465
597.344	44.3926
600.719	26.5684
604.094	30.8828
607.468	39.4707
610.843	37.3418
614.218	7.61719
617.593	36.8633
620.968	5.89062
624.342	37.6719
627.717	41.002
631.092	13.877
634.467	92.8125
637.842	62.3906
641.217	78.082
644.591	55.2793
647.966	80.1699
651.341	124.557
654.716	96.8672
658.091	146.461
661.466	208.518
664.84	334.615
668.215	502.469
671.59	703.131
674.965	776.998
678.34	764.492
681.714	559.275
685.089	386.635
688.464	284.41
691.839	225.012
695.214	77.7676
698.588	4.59766
701.963	25.584
705.338	36.9355
708.713	46.2598
712.088	10.5586
715.462	4.33008
718.837	20.0664
722.212	24.9688
725.587	2.12695
728.962	10.5527
732.337	100.045
735.711	23.5449
739.086	49.1992
742.461	63.791
745.836	32.1348
749.211	70.8535
752.586	44.1074
755.96	11.8574
759.335	23.3184
762.71	42.0918
766.085	25.8594
769.46	51.8418
772.834	31.0137
776.209	40.3301
779.584	50.6797
782.959	71.1875
786.334	4.48828
789.708	15.2012
793.083	162.062
796.458	74.541
799.833	56.6602
803.208	16.4883
806.583	79.6348
809.957	108.037
813.332	69.2305
816.707	107.117
820.082	149.956
823.457	138.971
826.832	42.585
830.206	30.9189
833.581	43.0732
836.956	70.8984
840.331	54.6123
843.706	47.4473
847.08	26.123
850.455	49.9209
853.83	43.7012
857.205	55.5039
860.58	27.7266
863.955	77.1973
867.329	83.5019
870.704	52.3867
874.079	79.9727
877.454	47.8232
880.829	35.0527
884.203	42.0772
887.578	71.8769
890.953	20.3838
894.328	26.2988
897.703	24.8135
901.077	14.6777
904.452	8.52344
907.827	87.8633
911.202	34.3906
914.577	12.8418
917.952	72.6152
921.326	73.9404
924.701	41.5957
928.076	51.9463
931.451	67.1357
934.826	94.3369
938.2	59.3779
941.575	77.6504
944.95	43.1914
948.325	39.0879
951.7	49.5557
955.074	88.585
958.449	35.249
961.824	12.1943
965.199	14.1592
968.574	65.6318
971.949	16.1533
975.323	12.1475
978.698	15.6787
982.073	113.423
985.448	42.4853
988.823	44.0469
992.197	21.1816
995.572	52.8193
998.947	34.6074
1002.32	8.74902
1005.7	41.7451
1009.07	52.9795
1012.45	28.2588
1015.82	69.333
1019.2	65.917
1022.57	49.8506
1025.95	71.0332
1029.32	56.4395
1032.69	110.161
1036.07	105.128
1039.44	81.8535
1042.82	39.8057
1046.19	36.499
1049.57	81.0293
1052.94	86.5049
1056.32	111.835
1059.69	159.398
1063.07	93.8154
1066.44	89.707
1069.82	117.971
1073.19	94.2441
1076.57	55.7266
1079.94	51.9971
1083.32	91.415
1086.69	49.9727
1090.07	127.63
1093.44	143.819
1096.82	60.2783
1100.19	1.86231
1103.57	21.7109
1106.94	1.75098
1110.32	63.4121
1113.69	30.7051
1117.07	19.9521
1120.44	12.4639
1123.82	14.7588
1127.19	12.5498
1130.57	28.4561
1133.94	25.626
1137.32	32.1728
1140.69	63.2969
1144.06	60.3418
1147.44	104.835
1150.81	53.0215
1154.19	75.8594
1157.56	76.8535
1160.94	75.3223
1164.31	97.3691
1167.69	101.755
1171.06	108.839
1174.44	150.694
1177.81	102.649
1181.19	176.821
1184.56	87.5772
1187.94	120.01
1191.31	127.949
1194.69	126.377
1198.06	111.329
1201.44	111.476
1204.81	155.137
1208.19	75.7481
1211.56	65.8926
1214.93	92.4326
1218.31	77.4453
1221.68	41.2978
1225.06	101.072
1228.43	83.0078
1231.81	39.3184
1235.18	29.3584
1238.56	2.37012
1241.93	13.7656
1245.31	2.48144
1248.68	6.75977
1252.06	23.7607
1255.43	26.874
1258.81	34.3398
1262.18	97.3613
1265.56	109.46
1268.93	59.2744
1272.31	8.35156
1275.68	24.25
1279.06	59.2148
1282.43	54.0381
