Measurement: Raman, 532 nm, unoriented, Raman Data Processed
Mineral: Neptunite
Rruff sample: R060746
Ideal chemistry: KNa_2_LiFe^2+^_2_Ti^4+^_2_Si_8_O_24_
Locality: San Benito Mountains, San Benito County, California, USA
Source: California Institute of Technology
Description: Deep red-black fragment of a prismatic single crystal
Measured chemistry: K_1.00_Na_2.00_Li_1.00_(Fe^2+^_1.48_Mg_0.36_Mn_0.16_)_Î£=2_Ti_2.00_Si_8.00_O_24_
Raman shift (cm-1)	intensity
135.022	0
138.397	73.9215
141.772	111.263
145.147	259.347
148.522	396.812
151.896	385.478
155.271	175.144
158.646	25.6025
162.021	140.232
165.396	200.982
168.77	328.04
172.145	233.202
175.52	159.163
178.895	207.429
182.27	280.562
185.644	243.766
189.019	165.135
192.394	152.492
195.769	284.803
199.144	450.157
202.519	629.177
205.893	481.025
209.268	230.087
212.643	62.4071
216.018	26.2287
219.393	38.1866
222.767	49.3054
226.142	47.6996
229.517	103.696
232.892	102.362
236.267	100.113
239.642	104.381
243.016	89.1436
246.391	107.121
249.766	104.83
253.141	16.2125
256.516	27.0891
259.89	19.7665
263.265	29.8936
266.64	14.3218
270.015	81.2123
273.39	205.552
276.764	246.376
280.139	260.251
283.514	326.998
286.889	322.974
290.264	311.125
293.639	284.305
297.013	283.471
300.388	232.78
303.763	205.391
307.138	238.302
310.513	266.695
313.887	179.429
317.262	122.591
320.637	126.921
324.012	138.669
327.387	188.617
330.762	205.461
334.136	211.272
337.511	292.464
340.886	317.724
344.261	268.912
347.635	167.626
351.01	146.079
354.385	120.323
357.76	111.88
361.135	88.6489
364.51	25.7277
367.884	15.6545
371.259	3.09106
374.634	8.65479
378.009	85.8514
381.384	93.2242
384.759	138.445
388.133	140.255
391.508	93.1514
394.883	73.7294
398.258	84.2472
401.633	97.9674
405.007	124.788
408.382	133.711
411.757	94.4257
415.132	92.139
418.507	53.2848
421.881	63.3409
425.256	70.6701
428.631	47.2189
432.006	42.4007
435.381	45.2018
438.755	35.4648
442.13	30.6068
445.505	13.142
448.88	22.697
452.255	15.7139
455.63	7.61633
459.004	37.0618
462.379	30.8672
465.754	20.1212
469.129	85.0836
472.504	132.82
475.878	244.195
479.253	329.277
482.628	406.822
486.003	404.724
489.378	378.821
492.752	263.838
496.127	188.112
499.502	123.667
502.877	98.4168
506.252	119.848
509.627	92.0883
513.001	86.4562
516.376	115.749
519.751	162.547
523.126	213.223
526.501	290.276
529.875	401.499
533.25	555.952
536.625	691.181
540	800.763
543.375	900.949
546.75	1025.72
550.124	1142.64
553.499	1041.97
556.874	1010.14
560.249	730.149
563.624	596.885
566.998	473.986
570.373	363.735
573.748	323.581
577.123	341.552
580.498	255.353
583.872	245.778
587.247	226.872
590.622	145.501
593.997	107.947
597.372	30.8707
600.747	5.0625
604.121	29.1588
607.496	0.84082
610.871	6.19037
614.246	3.39197
617.621	1.26343
620.995	2.81287
624.37	4.60297
627.745	44.8816
631.12	75.054
634.495	77.0649
637.87	131.649
641.244	125.818
644.619	215.972
647.994	218.727
651.369	282.699
654.744	316.805
658.118	339.857
661.493	279.719
664.868	294.818
668.243	269.246
671.618	297.357
674.992	348.352
678.367	447.288
681.742	534.918
685.117	635.402
688.492	694.905
691.866	743.925
695.241	780.154
698.616	682.552
701.991	512.335
705.366	354.653
708.741	312.557
712.115	257.866
715.49	280.607
718.865	153.799
722.24	84.0053
725.615	72.369
728.99	26.0596
732.364	3.69116
735.739	4.5144
739.114	1.28455
742.489	30.2513
745.864	31.4561
749.238	34.5444
752.613	37.2836
755.988	5.203
759.363	53.7487
762.738	46.9471
766.112	50.988
769.487	13.5343
772.862	36.9354
776.237	30.7185
779.612	50.4967
782.986	38.4066
786.361	34.9442
789.736	78.0343
793.111	213.09
796.486	377.58
799.861	733.668
803.235	1358.87
806.61	2413.25
809.985	4387.85
813.36	7383.71
816.735	11465.3
820.109	15625.7
823.484	16787.9
826.859	16039.8
830.234	15208.4
833.609	13467
836.984	9901.36
840.358	6200.17
843.733	3757.92
847.108	2296.29
850.483	1550.04
853.858	991.683
857.232	761.843
860.607	673.465
863.982	611.922
867.357	631.302
870.732	602.315
874.106	497.748
877.481	428.3
880.856	313.921
884.231	304.79
887.606	345.95
890.981	385.069
894.355	346.108
897.73	351.744
901.105	285.557
904.48	217.603
907.855	102.652
911.229	4.87024
914.604	70.8514
917.979	86.8936
921.354	33.5482
924.729	34.1054
928.104	134.936
931.478	274.736
934.853	427.959
938.228	458.552
941.603	441.427
944.977	362.097
948.352	358.266
951.727	329.069
955.102	326.781
958.477	346.799
961.852	242.883
965.226	225.589
968.601	280.325
971.976	288.433
975.351	318.416
978.726	301.663
982.101	338.738
985.475	506.158
988.85	695.26
992.225	888.342
995.6	984.912
998.975	1136.88
1002.35	1142.73
1005.72	1135.37
1009.1	1107.15
1012.47	1185.69
1015.85	1131.74
1019.22	832.764
1022.6	483.715
1025.97	348.855
1029.35	214.772
1032.72	136.57
1036.1	71.2061
1039.47	39.0682
1042.85	16.0095
1046.22	36.2827
1049.6	100.728
1052.97	145.796
1056.35	164.96
1059.72	216.258
1063.1	231.168
1066.47	194.569
1069.85	145.892
1073.22	169.321
1076.6	244.793
1079.97	367.843
1083.35	457.135
1086.72	542.41
1090.09	504.383
1093.47	329.424
1096.84	150.169
1100.22	10.4901
1103.59	25.6847
1106.97	44.7357
1110.34	3.94995
1113.72	83.3047
1117.09	141.229
1120.47	187.531
1123.84	283.461
1127.22	277.342
1130.59	369.505
1133.97	371.261
1137.34	335.251
1140.72	337.983
1144.09	272.013
1147.47	218.445
1150.84	155.56
1154.22	117.067
1157.59	150.658
1160.97	144.926
1164.34	91.2721
1167.71	28.2614
1171.09	2.84729
1174.46	63.8184
1177.84	62.5251
1181.21	72.3577
1184.59	59.7886
1187.96	36.5637
1191.34	33.8855
1194.71	20.0703
1198.09	20.0559
1201.46	33.9877
1204.84	2.26123
1208.21	28.86
1211.59	14.0372
1214.96	6.9668
1218.34	17.6078
1221.71	22.5315
1225.09	45.8267
1228.46	29.7371
1231.84	41.2321
1235.21	18.1757
1238.59	28.5112
1241.96	50.9751
1245.34	3.24548
1248.71	61.8406
1252.09	15.7308
1255.46	26.5455
1258.84	31.0783
1262.21	55.0241
1265.59	17.642
1268.96	11.8508
1272.33	65.8528
1275.71	10.7368
1279.08	42.465
1282.46	46.5516
1285.83	18.3998
1289.21	44.0938
1292.58	20.0923
