Measurement: Raman, 785 nm, unoriented, Raman Data Processed
Mineral: Nevadaite
Rruff sample: R060775
Ideal chemistry: (Cu^2+^,[box],Al,V^3+^)_6_[Al_8_(PO_4_)_8_F_8_](OH)_2_22H_2_O
Locality: Gold Quarry mine, Eueka County, Nevada, USA
Source: Michael Scott
Description: Spherical aggregates of blue tabular crystals
Raman shift (cm-1)	intensity
161.061	0
163.954	32.1102
166.847	79.0299
169.739	87.6566
172.632	103.103
175.525	125.826
178.417	148.798
181.31	201.944
184.203	228.556
187.096	286.495
189.988	296.286
192.881	242.148
195.774	241.679
198.666	215.697
201.559	194.84
204.452	101.535
207.344	49.8325
210.237	11.4622
213.13	10.7609
216.023	27.3413
218.915	4.15479
221.808	6.16113
224.701	33.8661
227.593	31.076
230.486	61.6173
233.379	84.5892
236.271	93.8926
239.164	116.413
242.057	109.083
244.95	95.9619
247.842	117.282
250.735	100.055
253.628	56.3742
256.52	3.06445
259.413	24.426
262.306	68.7709
265.198	24.8329
268.091	38.9045
270.984	23.9311
273.877	34.5065
276.769	5.39062
279.662	12.5348
282.555	63.1659
285.447	45.3137
288.34	83.4198
291.233	107.124
294.125	163.742
297.018	171.006
299.911	234.025
302.804	184.834
305.696	187.064
308.589	152.424
311.482	136.165
314.374	107.21
317.267	71.1954
320.16	45.6736
323.052	25.4296
325.945	32.0261
328.838	69.5348
331.731	87.471
334.623	100.907
337.516	119.681
340.409	120.892
343.301	143.22
346.194	135.755
349.087	125.178
351.979	122.977
354.872	86.9087
357.765	108.119
360.658	50.1568
363.55	53.0062
366.443	13.9436
369.336	8.45135
372.228	25.0606
375.121	17.8735
378.014	31.1709
380.906	19.0836
383.799	43.0973
386.692	22.858
389.585	15.1271
392.477	1.88879
395.37	29.0087
398.263	13.5482
401.155	45.3032
404.048	59.4666
406.941	27.0817
409.833	43.1567
412.726	27.9116
415.619	29.0217
418.512	42.3404
421.404	55.3497
424.297	40.9418
427.19	53.7922
430.082	89.7459
432.975	109.607
435.868	83.8556
438.76	126.533
441.653	144.04
444.546	110.886
447.439	148.233
450.331	127.086
453.224	133.14
456.117	176.657
459.009	111.622
461.902	127.366
464.795	167.388
467.687	126.584
470.58	143.94
473.473	103.651
476.366	100.377
479.258	107.806
482.151	131.679
485.044	98.9644
487.936	89.7277
490.829	96.8554
493.722	105.562
496.614	78.6269
499.507	107.971
502.4	115.07
505.293	124.609
508.185	151.266
511.078	147.475
513.971	146.161
516.863	171.452
519.756	150.014
522.649	100.012
525.541	69.2228
528.434	56.6189
531.327	55.4197
534.219	35.8658
537.112	14.1155
540.005	25.5599
542.898	5.72473
545.79	6.98981
548.683	1.07843
551.576	7.64062
554.468	0.038208
557.361	46.0944
560.254	18.4847
563.146	89.6698
566.039	63.8905
568.932	49.2092
571.825	82.7386
574.717	88.3324
577.61	92.5378
580.503	92.064
583.395	63.0007
586.288	59.1843
589.181	26.6743
592.073	53.1396
594.966	45.0024
597.859	52.0875
600.752	48.8344
603.644	43.1135
606.537	69.6083
609.43	33.3826
612.322	47.6788
615.215	44.5972
618.108	36.6085
621	19.1763
623.893	19.1227
626.786	6.33112
629.679	6.38647
632.571	24.0424
635.464	10.8373
638.357	24.6749
641.25	26.042
644.142	45.5288
647.035	55.886
649.928	18.6905
652.82	25.7404
655.713	50.2817
658.606	29.4294
661.498	27.9256
664.391	14.2021
667.284	14.0226
670.177	13.3065
673.069	15.9175
675.962	24.4597
678.855	12.8928
681.747	34.0253
684.64	38.3187
687.533	34.8115
690.425	34.4025
693.318	39.1443
696.211	45.0294
699.104	9.28796
701.996	37.9009
704.889	13.9067
707.782	1.59448
710.674	12.5948
713.567	16.7459
716.46	1.98132
719.352	15.5252
722.245	13.1054
725.138	3.81085
728.031	11.275
730.923	25.3024
733.816	50.8752
736.709	59.6655
739.601	27.4612
742.494	29.9051
745.387	7.96191
748.279	2.63855
751.172	9.70917
754.065	27.2438
756.958	7.58429
759.85	22.9406
762.743	25.9799
765.636	44.5635
768.528	14.5535
771.421	38.3783
774.314	26.3156
777.206	25.2439
780.099	57.3752
782.992	63.514
785.885	42.0511
788.777	11.502
791.67	36.6918
794.563	21.6931
797.455	15.6499
800.348	7.82361
803.241	9.25348
806.133	36.3758
809.026	61.5671
811.919	28.4578
814.812	62.0583
817.704	33.0417
820.597	81.4528
823.49	53.8076
826.382	26.0639
829.275	38.1031
832.168	49.3139
835.06	58.1913
837.953	78.3905
840.846	52.9705
843.738	66.7247
846.631	35.7199
849.524	47.2955
852.417	59.4504
855.309	65.5333
858.202	40.4083
861.095	28.817
863.987	16.9384
866.88	2.31506
869.773	20.6657
872.665	27.8926
875.558	7.71362
878.451	16.0661
881.344	17.7741
884.236	6.75378
887.129	37.1566
890.022	10.7677
892.914	30.5059
895.807	19.5532
898.7	21.6461
901.592	20.5473
904.485	0.122131
907.378	13.0601
910.271	17.5291
913.163	6.45447
916.056	3.31183
918.949	2.38654
921.841	33.5536
924.734	15.0887
927.627	23.9704
930.519	28.7467
933.412	29.7698
936.305	69.0236
939.198	18.9672
942.09	28.1472
944.983	19.4636
947.876	5.06036
950.768	13.1514
953.661	9.79639
956.554	29.5032
959.446	66.03
962.339	84.4468
965.232	119.557
968.125	142.419
971.017	186.823
973.91	149.472
976.803	142.87
979.695	123.866
982.588	115.97
985.481	59.0413
988.373	53.8919
991.266	9.00964
994.159	12.1885
997.052	79.3234
999.944	33.4651
1002.84	71.1606
1005.73	68.0379
1008.62	91.939
1011.51	110.805
1014.41	192.841
1017.3	209.087
1020.19	238.389
1023.09	287.053
1025.98	302.396
1028.87	342.093
1031.76	370.034
1034.66	373.138
1037.55	317.337
1040.44	325.627
1043.34	298.295
1046.23	328.255
1049.12	352.735
1052.01	343.834
1054.91	299.815
1057.8	297.433
1060.69	291.844
1063.58	237.214
1066.48	225.751
1069.37	167.539
1072.26	133.107
1075.15	94.6204
1078.05	116.747
1080.94	71.8536
1083.83	55.8306
1086.72	23.154
1089.62	39.3557
1092.51	6.95288
1095.4	11.0687
1098.3	27.7746
1101.19	12.4706
1104.08	27.9754
1106.97	1.43707
1109.87	1.46533
1112.76	16.702
1115.65	20.9911
1118.55	1.73328
1121.44	52.7413
1124.33	16.936
1127.22	27.7244
1130.12	24.7445
1133.01	21.7191
1135.9	38.0465
1138.79	37.0689
1141.69	38.8539
1144.58	29.8235
1147.47	76.9723
1150.37	67.9016
1153.26	150.518
1156.15	101.651
1159.04	98.2172
1161.93	74.7657
1164.83	55.7313
1167.72	64.3978
1170.61	42.5294
1173.51	20.0327
1176.4	29.7303
1179.29	43.1564
1182.18	37.2216
1185.08	54.1281
1187.97	43.108
1190.86	71.9297
1193.76	41.6654
1196.65	34.2698
1199.54	60.9522
1202.43	37.0933
1205.33	16.3466
1208.22	12.4752
1211.11	27.2464
1214	66.9682
1216.9	42.4001
1219.79	57.7456
1222.68	78.7278
1225.58	88.4462
1228.47	119.252
1231.36	95.6746
1234.25	95.6195
1237.15	32.2651
1240.04	0.274414
1242.93	61.7099
1245.82	54.0565
1248.72	40.4924
1251.61	58.3899
1254.5	38.8848
1257.39	16.5227
1260.29	18.1043
1263.18	0
