Measurement: Raman, 532 nm, unoriented, Raman Data Processed
Mineral: Neyite
Rruff sample: R100116
Ideal chemistry: Ag^1+^_2_Cu^1+^_6_Pb^2+^_25_Bi^3+^_26_S^2-^_68_
Locality: Southwest end of pit, British Columbia Molybdenum mine, Kitsault, British Columbia, Canada
Source: Robert Woodside
Description: Unconsolidated lead-gray elongated crystals with stepped surfaces
Raman shift (cm-1)	intensity
154.625	0
157.518	0.390747
160.411	4.35622
163.304	6.60483
166.196	15.3384
169.089	11.4649
171.982	6.97478
174.874	9.0033
177.767	6.83285
180.66	9.06449
183.553	7.12374
186.445	10.133
189.338	6.91477
192.231	9.49444
195.123	9.00058
198.016	8.95702
200.909	6.87517
203.801	9.30608
206.694	9.05695
209.587	7.64105
212.48	10.3992
215.372	5.73441
218.265	8.46765
221.158	9.31019
224.05	9.30097
226.943	9.80876
229.836	8.62019
232.728	8.10113
235.621	11.298
238.514	8.1042
241.406	11.4742
244.299	14.9153
247.192	10.2406
250.085	12.4382
252.977	12.4133
255.87	11.6001
258.763	9.27013
261.656	8.70915
264.548	6.15807
267.441	8.45906
270.334	6.4323
273.226	7.43976
276.119	2.85877
279.012	7.63492
281.904	4.04589
284.797	1.93315
287.69	0.358231
290.582	2.91219
293.475	0.553223
296.368	0.339714
299.261	4.67725
302.153	3.82875
305.046	0.441833
307.939	1.86623
310.831	2.55103
313.724	0.263489
316.617	1.34288
319.51	0.242165
322.402	2.08253
325.295	1.27019
328.188	2.66228
331.08	1.65112
333.973	3.79843
336.866	1.03744
339.759	2.98874
342.651	2.02747
345.544	2.27219
348.437	1.61059
351.329	1.8031
354.222	1.78638
357.115	2.05154
360.007	2.17055
362.9	0.617073
365.793	3.99995
368.685	3.29259
371.578	2.17779
374.471	3.76813
377.364	2.19201
380.256	1.37125
383.149	2.7336
386.042	2.49374
388.934	3.60513
391.827	3.2161
394.72	1.76394
397.613	0.154053
400.505	1.84162
403.398	2.25326
406.291	3.87884
409.183	1.02422
412.076	2.67435
414.969	1.31982
417.861	0.7117
420.754	3.36327
423.647	0.993614
426.54	0.020378
429.432	1.66201
432.325	1.80473
435.218	4.16575
438.11	3.46944
441.003	3.36219
443.896	1.72968
446.788	1.91276
449.681	2.22898
452.574	2.08726
455.467	3.57378
458.359	3.1395
461.252	2.42454
464.145	0.136757
467.037	1.85831
469.93	2.97472
472.823	0.980728
475.716	4.04604
478.608	3.326
481.501	3.63464
484.394	2.06288
487.286	2.20248
490.179	1.1944
493.072	1.53982
495.964	2.44746
498.857	2.01249
501.75	0.582336
504.642	2.3741
507.535	4.7875
510.428	1.60641
513.321	2.03008
516.213	1.85834
519.106	3.23188
521.999	2.12986
524.891	3.47429
527.784	0.025383
530.677	0.404335
533.57	0.678192
536.462	3.03286
539.355	2.72015
542.248	1.54806
545.14	3.12077
548.033	3.78392
550.926	0.400887
553.818	0.386841
556.711	2.78692
559.604	2.23085
562.497	4.1776
565.389	0.189056
568.282	0.123283
571.175	3.60019
574.067	2.98609
576.96	2.04048
579.853	0.095497
582.745	0.703011
585.638	6.7466
588.531	2.28628
591.424	1.88998
594.316	4.27352
597.209	1.03145
600.102	1.07058
602.994	1.42722
605.887	1.50247
608.78	3.77212
611.673	1.77873
614.565	2.38934
617.458	1.49673
620.351	1.16598
623.243	3.90955
626.136	3.39566
629.029	2.68368
631.921	0.626129
634.814	2.50588
637.707	3.07536
640.6	3.47171
643.492	0.885208
646.385	0.97995
649.278	3.18861
652.17	2.32431
655.063	2.40907
657.956	2.60188
660.848	3.84608
663.741	0.348396
666.634	1.7223
669.527	2.14592
672.419	2.39291
675.312	0.256828
678.205	3.30299
681.097	0.000618
683.99	1.73276
686.883	0.079071
689.775	3.16438
692.668	1.05701
695.561	2.02268
698.454	3.12123
701.346	2.82056
704.239	3.99683
707.132	0.657799
710.024	2.18884
712.917	1.37766
715.81	0.540482
718.703	2.16927
721.595	3.3259
724.488	2.05046
727.381	0.626152
730.273	1.5197
733.166	1.02322
736.059	1.44458
738.952	0.209404
741.844	4.27811
744.737	3.59615
747.63	0.142334
750.522	3.8318
753.415	3.92976
756.308	0.548042
759.2	3.49713
762.093	4.11118
764.986	2.63891
767.879	3.66045
770.771	0.433678
773.664	1.02137
776.557	2.03883
779.449	1.34152
782.342	1.72066
785.235	3.00836
788.127	2.94697
791.02	3.76785
793.913	3.1303
796.806	2.68546
799.698	4.47058
802.591	2.99693
805.484	0.449074
808.376	1.18563
811.269	3.00297
814.162	3.38372
817.054	2.42934
819.947	3.30517
822.84	4.50063
825.733	3.4439
828.625	4.54403
831.518	2.94505
834.411	2.88435
837.303	2.58099
840.196	2.95614
843.089	2.6143
845.981	1.67765
848.874	3.99388
851.767	3.34633
854.66	5.13177
857.552	1.59455
860.445	3.07797
863.338	5.25716
866.23	2.58154
869.123	1.23594
872.016	4.35169
874.909	1.46011
877.801	3.56783
880.694	0.46273
883.587	1.61365
886.479	0.558411
889.372	0.84198
892.265	2.51994
895.158	2.11331
898.05	0.412125
900.943	1.7022
903.836	1.918
906.728	0.016151
909.621	1.66315
912.514	3.95564
915.406	2.58074
918.299	0.08551
921.192	3.20785
924.085	1.14841
926.977	1.79389
929.87	1.481
932.763	2.50693
935.655	2.72527
938.548	0.944839
941.441	3.45806
944.333	3.95269
947.226	0.928566
950.119	0.238556
953.011	2.97137
955.904	4.02911
958.797	1.74558
961.69	2.66449
964.582	1.83759
967.475	0.570099
970.368	2.41157
973.26	0.294777
976.153	2.4135
979.046	0.00425
981.938	1.34192
984.831	1.64976
987.724	3.02805
990.617	0.829857
993.509	0.232559
996.402	1.57581
999.295	5.5639
1002.19	2.59341
1005.08	1.12307
1007.97	0.693375
1010.87	3.03943
1013.76	4.02665
1016.65	1.91771
1019.54	0.40107
1022.44	3.01244
1025.33	2.47317
1028.22	2.20215
1031.12	4.2491
1034.01	1.9383
1036.9	0.99836
1039.79	2.52882
1042.68	3.73808
1045.58	1.32706
1048.47	3.714
1051.36	0.160469
1054.26	2.40418
1057.15	2.41489
1060.04	2.07255
1062.93	0.809303
1065.83	4.72134
1068.72	2.66684
1071.61	1.46138
1074.51	2.05732
1077.4	3.62171
1080.29	3.84633
1083.18	3.26788
1086.08	2.84348
1088.97	2.924
1091.86	0.235832
1094.75	0.084633
1097.65	0.857063
1100.54	2.89137
1103.43	2.64793
1106.33	1.72221
1109.22	3.81707
1112.11	1.82221
1115	1.98649
1117.9	2.45104
1120.79	1.77699
1123.68	3.86968
1126.57	5.58934
1129.47	0.176682
1132.36	3.57526
1135.25	1.73074
1138.14	1.21821
1141.04	3.08746
1143.93	2.06422
1146.82	1.13346
1149.71	2.18234
1152.61	0.514961
1155.5	3.52609
1158.39	4.50489
1161.29	0.591461
1164.18	1.79707
1167.07	3.04436
1169.96	2.25594
1172.86	1.7733
1175.75	3.04756
1178.64	1.41413
1181.54	3.41351
1184.43	3.0255
1187.32	2.62677
1190.21	0.69931
1193.11	1.36082
1196	2.66001
1198.89	1.60815
1201.78	3.47134
1204.68	2.62174
1207.57	1.92152
1210.46	1.72625
1213.36	1.20667
1216.25	1.62432
1219.14	1.08048
1222.03	3.03449
1224.93	1.39977
1227.82	2.04086
1230.71	0.024826
1233.6	0.762802
1236.5	3.70512
1239.39	0.761147
1242.28	0.449425
1245.17	0.208412
1248.07	3.44585
1250.96	1.21087
1253.85	1.9667
1256.74	0.221069
1259.64	1.97357
1262.53	2.83321
1265.42	3.61946
1268.32	1.50004
1271.21	0.668304
1274.1	0.101379
1276.99	2.28244
1279.89	2.16582
1282.78	0.551453
1285.67	1.12993
1288.57	0.392754
1291.46	0.810692
1294.35	2.84804
