Measurement: Raman, 780 nm, unoriented, Raman Data Processed
Mineral: Nickelskutterudite
Rruff sample: R061007
Ideal chemistry: (Ni^4+^,Co^3+^,Fe^3+^)As_3_
Locality: Hasserode, Harz, Germany
Source: Michael Scott
Description: Aggregate of silver-gray cubes, some tarnished to a brassy color
Measured chemistry: (Ni_0.48_Co_0.36_Fe_0.13_)_Σ=0.97_(As_2.79_S_0.21_)_Σ=3.00_
Raman shift (cm-1)	intensity
170.637	0
173.53	3.18554
176.422	2.04788
179.315	4.07335
182.208	3.33368
185.1	6.21262
187.993	8.36561
190.886	8.80848
193.778	11.2515
196.671	16.2625
199.564	18.7356
202.457	18.5596
205.349	16.2658
208.242	21.0889
211.135	14.3477
214.027	11.5246
216.92	10.3189
219.813	8.74478
222.705	5.76849
225.598	9.5658
228.491	10.5784
231.383	12.3574
234.276	14.3524
237.169	14.714
240.061	15.1222
242.954	15.6125
245.847	13.2997
248.74	10.2563
251.632	7.46652
254.525	3.12001
257.418	1.34075
260.31	1.6854
263.203	0.740364
266.096	1.46936
268.988	1.44172
271.881	0.367184
274.774	3.0895
277.667	2.38271
280.559	0.95335
283.452	3.52436
286.345	3.6985
289.237	0.436867
292.13	4.05155
295.023	1.15012
297.916	3.86094
300.808	3.17197
303.701	5.282
306.594	4.95052
309.486	1.74215
312.379	1.90324
315.272	4.42007
318.164	1.88928
321.057	3.06418
323.95	3.59806
326.842	2.32912
329.735	2.44379
332.628	3.50055
335.521	0.989716
338.413	1.48387
341.306	1.51435
344.199	1.20917
347.091	2.26813
349.984	0.481655
352.877	0.541592
355.769	1.93107
358.662	1.75344
361.555	5.79198
364.447	1.31177
367.34	1.71493
370.233	4.36864
373.126	0.000828
376.018	0.759869
378.911	1.93144
381.804	1.78552
384.696	1.18108
387.589	3.11558
390.482	3.56257
393.375	0.041164
396.267	2.92187
399.16	3.47319
402.053	2.4436
404.945	1.45406
407.838	4.25083
410.731	3.41191
413.623	2.90054
416.516	0.915344
419.409	2.29092
422.301	4.07785
425.194	1.20626
428.087	3.09358
430.98	2.51189
433.872	0.256474
436.765	1.55433
439.658	2.85479
442.55	5.13309
445.443	4.44401
448.336	2.33978
451.228	0.891405
454.121	2.15462
457.014	2.75201
459.907	3.05982
462.799	0.751463
465.692	2.94797
468.585	2.31876
471.477	3.11402
474.37	1.65549
477.263	4.07093
480.156	0.889423
483.048	1.05871
485.941	3.07841
488.834	3.05378
491.726	0.221928
494.619	4.04469
497.512	4.12105
500.404	5.18226
503.297	0.307556
506.19	1.41359
509.082	1.97472
511.975	0.88435
514.868	1.96903
517.761	3.33967
520.653	6.10086
523.546	0.891273
526.439	3.84782
529.331	0.026674
532.224	2.86676
535.117	3.56669
538.01	1.81609
540.902	4.4162
543.795	4.75458
546.688	2.27928
549.58	2.94363
552.473	4.54041
555.366	1.41598
558.258	5.1031
561.151	3.899
564.044	3.68832
566.936	0.129223
569.829	2.11816
572.722	1.95726
575.615	3.63934
578.507	2.39746
581.4	5.48582
584.293	1.88558
587.185	2.8239
590.078	0.362265
592.971	3.32356
595.863	4.35282
598.756	2.62088
601.649	3.9563
604.542	3.54467
607.434	4.29389
610.327	0.01293
613.22	3.69178
616.112	2.93805
619.005	5.4181
621.898	1.75273
624.79	4.49481
627.683	3.19436
630.576	3.9747
633.468	4.76483
636.361	1.94221
639.254	4.63061
642.146	4.64903
645.039	0.948774
647.932	2.49872
650.825	2.47287
653.717	1.37736
656.61	0.35774
659.503	2.1547
662.395	4.20007
665.288	4.98299
668.181	3.74945
671.073	3.53903
673.966	3.37829
676.859	0.023485
679.752	3.95768
682.644	1.40595
685.537	0.964247
688.43	3.33812
691.322	1.27496
694.215	2.92372
697.108	2.09557
700	0.529879
702.893	1.75067
705.786	0.903757
708.679	0.856684
711.571	2.17566
714.464	0.953913
717.357	2.62245
720.249	1.4864
723.142	2.63772
726.035	1.16026
728.928	2.79126
731.82	0.306925
734.713	1.36459
737.606	1.12079
740.498	2.11392
743.391	1.63935
746.284	2.45023
749.176	2.89347
752.069	1.59468
754.962	1.20441
757.855	0.648441
760.747	1.822
763.64	0.064993
766.533	0.053061
769.425	0.219503
772.318	1.74883
775.211	0.687702
778.103	1.20742
780.996	4.00742
783.889	1.04591
786.782	2.64438
789.674	0.119415
792.567	4.89323
795.46	4.32325
798.352	3.29031
801.245	1.61705
804.138	0.582405
807.03	3.11778
809.923	1.48524
812.816	2.65047
815.708	4.35812
818.601	4.12544
821.494	3.25853
824.386	4.2557
827.279	5.28379
830.172	4.28845
833.065	5.44577
835.957	5.38204
838.85	5.27065
841.743	5.4452
844.635	4.26921
847.528	6.84776
850.421	5.55781
853.313	2.72137
856.206	2.886
859.099	5.28154
861.992	3.06353
864.884	5.52612
867.777	4.09333
870.67	3.67357
873.562	3.84046
876.455	1.57004
879.348	6.72716
882.24	1.9187
885.133	0.429041
888.026	0.983036
890.919	0.446819
893.811	4.26666
896.704	2.48795
899.597	1.38802
902.489	2.9194
905.382	1.68912
908.275	4.99047
911.168	0.029228
914.06	0.553322
916.953	0.601057
919.846	1.03545
922.738	2.67127
925.631	3.18288
928.524	3.22746
931.416	1.92403
934.309	1.39539
937.202	1.71699
940.095	1.53915
942.987	0.807922
945.88	3.16017
948.773	1.8288
951.665	2.58413
954.558	1.28157
957.451	0.475494
960.343	2.95563
963.236	1.43966
966.129	0.339342
969.021	1.27872
971.914	2.08631
974.807	3.72812
977.699	2.3744
980.592	0.357916
983.485	2.48912
986.378	3.16266
989.27	1.60877
992.163	4.67264
995.056	5.32536
997.948	1.5623
1000.84	0.915911
1003.73	1.90983
1006.63	3.17675
1009.52	3.51588
1012.41	3.72439
1015.3	1.84585
1018.2	2.33764
1021.09	2.76732
1023.98	3.08464
1026.88	2.93158
1029.77	3.90187
1032.66	3.49322
1035.55	5.07234
1038.45	1.46482
1041.34	2.94121
1044.23	5.62932
1047.12	1.84752
1050.02	2.13909
1052.91	2.60561
1055.8	1.26747
1058.69	2.12533
1061.59	0.679743
1064.48	1.32455
1067.37	0.798828
1070.27	0.867239
1073.16	2.19192
1076.05	0.215736
1078.94	2.29807
1081.84	3.05784
1084.73	2.99185
1087.62	1.33231
1090.52	2.08553
1093.41	2.38048
1096.3	2.12504
1099.19	4.00753
1102.09	2.87145
1104.98	1.36152
1107.87	2.9328
1110.76	3.2282
1113.66	2.36831
1116.55	2.05993
1119.44	0.12114
1122.33	5.10782
1125.23	1.12669
1128.12	3.62883
1131.01	2.2506
1133.9	0.216446
1136.8	2.19508
1139.69	3.96861
1142.58	1.08499
1145.48	1.62647
1148.37	2.63692
1151.26	2.66889
1154.15	2.19946
1157.05	2.36848
1159.94	0.927639
1162.83	3.34769
1165.72	2.75118
1168.62	4.19126
1171.51	1.27762
1174.4	1.7001
1177.3	3.75712
1180.19	4.27142
1183.08	2.27055
1185.97	2.03412
1188.87	2.41552
1191.76	2.16423
1194.65	4.35716
1197.55	0.733042
1200.44	5.58774
1203.33	3.0444
1206.22	2.0376
1209.12	2.98949
1212.01	1.17456
1214.9	2.25844
1217.79	5.08626
1220.69	3.06723
1223.58	3.20188
1226.47	3.39597
1229.36	2.63454
1232.26	3.42138
1235.15	2.59054
1238.04	2.31117
1240.93	1.12597
1243.83	0.07979
1246.72	0.942516
1249.61	1.56624
1252.51	2.01146
1255.4	4.60815
1258.29	1.58673
1261.18	0.018545
1264.08	3.93586
1266.97	2.25258
1269.86	2.06573
1272.76	5.33394
1275.65	3.58322
1278.54	0.060661
1281.43	4.24702
1284.33	0.622772
