Measurement: Raman, 780 nm, unoriented, Raman Data Processed
Mineral: Nickelskutterudite
Rruff sample: R100196
Ideal chemistry: (Ni^4+^,Co^3+^,Fe^3+^)As_3_
Locality: Alhambra mine, Burro Mountains, Grant County, New Mexico, USA
Source: Ron Gibbs
Description: Silver dodecahedral crystals, dissolved out of calcite
Measured chemistry: (Ni_0.62_Co_0.28_Fe_0.12_)_Σ=1.02_(As_2.95_S_0.05_)_Σ=3.00_
Raman shift (cm-1)	intensity
93.4982	0
96.873	1.6682
100.248	0.636883
103.623	1.20712
106.997	1.83169
110.372	1.23961
113.747	1.8781
117.122	0.980915
120.497	1.13096
123.871	1.122
127.246	2.79073
130.621	1.19546
133.996	0.94602
137.371	0.33132
140.746	1.32336
144.12	0.826742
147.495	0.24827
150.87	0.92415
154.245	0.093342
157.62	0.069014
160.994	0.385162
164.369	0.523518
167.744	0.687052
171.119	1.37701
174.494	2.19606
177.869	2.30273
181.243	3.19903
184.618	3.89904
187.993	3.12484
191.368	4.91064
194.743	3.63763
198.117	4.01442
201.492	4.80242
204.867	3.31532
208.242	1.79874
211.617	3.4597
214.992	1.47892
218.366	2.65491
221.741	1.76362
225.116	2.03433
228.491	2.22592
231.866	4.40426
235.24	2.59309
238.615	3.45384
241.99	2.43648
245.365	2.73624
248.74	1.837
252.114	1.22233
255.489	1.93559
258.864	1.80562
262.239	1.02455
265.614	0.065355
268.988	1.86725
272.363	0.298563
275.738	1.21647
279.113	0.89395
282.488	0.023279
285.863	0.512358
289.237	1.34458
292.612	1.37986
295.987	0.869545
299.362	1.8569
302.737	0.291577
306.111	0.203463
309.486	0.797202
312.861	0.324172
316.236	1.04062
319.611	1.3074
322.986	1.39965
326.36	1.11212
329.735	0.834351
333.11	0.290405
336.485	0.051553
339.86	1.0428
343.234	0.254724
346.609	0.24959
349.984	1.49347
353.359	1.94712
356.734	1.15873
360.108	0.217619
363.483	0.666084
366.858	0.889585
370.233	1.03783
373.608	0.438053
376.983	0.769561
380.357	0.006187
383.732	0.851105
387.107	0.481421
390.482	0.828086
393.857	0.3191
397.231	0.575667
400.606	1.21198
403.981	1.52508
407.356	1.59605
410.731	1.41155
414.106	1.04039
417.48	1.39527
420.855	0.458837
424.23	0.578038
427.605	0.774763
430.98	1.01312
434.354	0.008403
437.729	0.945849
441.104	0.795756
444.479	0.307309
447.854	1.58412
451.228	0.143965
454.603	1.31349
457.978	1.67587
461.353	1.67457
464.728	0.734554
468.103	1.41504
471.477	1.47335
474.852	1.31466
478.227	0.717282
481.602	0.099846
484.977	1.57866
488.351	1.18308
491.726	1.48807
495.101	1.28347
498.476	0.205914
501.851	0.215598
505.226	1.28587
508.6	0.742196
511.975	0.512158
515.35	0.284079
518.725	0.681543
522.1	0.541225
525.474	2.42321
528.849	1.83327
532.224	1.36944
535.599	0.311162
538.974	1.2547
542.348	0.010486
545.723	2.50808
549.098	1.28519
552.473	0.989223
555.848	0.196486
559.222	1.19122
562.597	1.00413
565.972	0.485183
569.347	1.20048
572.722	0.192626
576.097	2.67055
579.471	1.98197
582.846	1.04464
586.221	0.946134
589.596	1.13467
592.971	1.51077
596.346	2.02468
599.72	0.16438
603.095	1.20981
606.47	0.005786
609.845	1.26408
613.22	0.156831
616.594	1.93761
619.969	0.057442
623.344	0.989476
626.719	1.08249
630.094	1.54101
633.468	2.16509
636.843	0.279349
640.218	1.69605
643.593	1.41736
646.968	1.56865
650.342	1.02945
653.717	0.62046
657.092	0.847545
660.467	0.832477
663.842	1.20668
667.217	0.446382
670.591	0.326551
673.966	0.542648
677.341	0.089394
680.716	1.81231
684.091	0.703688
687.466	1.23575
690.84	0.634637
694.215	0.374474
697.59	2.21412
700.965	1.25661
704.34	1.03687
707.714	1.14364
711.089	0.87424
714.464	0.810254
717.839	1.12417
721.214	1.41012
724.588	0.710864
727.963	1.49977
731.338	1.89522
734.713	0.084069
738.088	1.15759
741.462	1.23273
744.837	1.29239
748.212	1.26895
751.587	1.8036
754.962	1.05113
758.337	1.24368
761.711	0.574905
765.086	0.39496
768.461	0.048031
771.836	0.33832
775.211	1.69338
778.586	0.209616
781.96	0.492256
785.335	0.103252
788.71	0.531589
792.085	1.98495
795.46	0.239412
798.834	0.832762
802.209	1.498
805.584	0.732373
808.959	1.43516
812.334	1.35787
815.708	1.46999
819.083	0.615969
822.458	1.82346
825.833	1.92925
829.208	1.70071
832.582	0.767529
835.957	1.81573
839.332	1.63305
842.707	0.671909
846.082	2.00908
849.457	2.08051
852.831	1.8011
856.206	1.78866
859.581	1.64121
862.956	1.90144
866.331	2.00674
869.706	1.68319
873.08	1.09123
876.455	0.984007
879.83	0.216479
883.205	0.887235
886.58	1.2455
889.954	0.170379
893.329	0.600202
896.704	1.05066
900.079	0.810877
903.454	1.59667
906.828	1.0105
910.203	1.19279
913.578	0.870025
916.953	0.04965
920.328	0.636416
923.702	0.548421
927.077	0.019176
930.452	0.495168
933.827	0.145862
937.202	0.854352
940.577	2.19514
943.951	0.208026
947.326	0.658886
950.701	0.79308
954.076	0.252672
957.451	2.3269
960.825	0.436391
964.2	1.61803
967.575	0.463861
970.95	0.800998
974.325	0.419361
977.699	0.407407
981.074	2.51045
984.449	1.58414
987.824	0.243097
991.199	1.59532
994.574	0.762332
997.948	0.443599
1001.32	0.992818
1004.7	1.1899
1008.07	1.529
1011.45	0.470126
1014.82	0.850796
1018.2	0.800371
1021.57	1.19807
1024.95	0.987435
1028.32	0.292507
1031.7	0.992126
1035.07	0.791799
1038.45	0.190321
1041.82	0.590504
1045.2	0.777572
1048.57	1.45688
1051.94	1.89554
1055.32	0.837267
1058.69	1.05789
1062.07	1.2248
1065.44	0.977593
1068.82	0.220573
1072.19	2.14604
1075.57	0.938698
1078.94	0.939458
1082.32	1.56593
1085.69	0.298458
1089.07	0.446341
1092.44	1.05282
1095.82	0.962456
1099.19	0.047576
1102.57	0.304757
1105.94	2.01215
1109.32	0.233234
1112.69	0.382939
1116.07	0.118394
1119.44	0.129436
1122.82	0.005015
1126.19	0.98171
1129.57	1.03561
1132.94	0.689626
1136.32	0.719459
1139.69	1.63902
1143.07	0.656612
1146.44	1.03869
1149.82	0.655439
1153.19	0.476254
1156.57	2.00415
1159.94	1.19452
1163.31	1.09082
1166.69	1.1636
1170.06	1.00114
1173.44	1.18654
1176.81	1.22396
1180.19	0.491866
1183.56	1.97374
1186.94	0.04357
1190.31	0.789925
1193.69	0.486927
1197.06	1.58537
1200.44	1.43819
1203.81	0.64023
1207.19	0.07009
1210.56	1.24786
1213.94	1.54853
1217.31	1.48323
1220.69	1.2845
1224.06	0.765083
1227.44	0.944376
1230.81	0.801254
1234.18	1.24853
1237.56	1.66323
1240.93	0.408089
1244.31	0.063964
1247.68	1.91827
1251.06	0.798612
1254.43	1.00874
1257.81	1.18742
1261.18	1.6023
1264.56	1.36866
1267.93	0.198064
1271.31	1.52351
1274.68	1.74283
1278.06	1.18419
1281.43	0.008407
1284.81	0
