Measurement: Raman, 780 nm, unoriented, Raman Data Processed
Mineral: Nickeline
Rruff sample: R060121
Ideal chemistry: NiAs
Locality: Yellowknife, Great Slave Lake, Canada
Source: University of Arizona Mineral Museum
Description: Bronze colored massive
Measured chemistry: Ni_1.06_As_0.94_
Raman shift (cm-1)	intensity
120.952	0
124.327	0.567006
127.702	0.210333
131.077	1.25598
134.452	1.23649
137.826	2.28161
141.201	5.11115
144.576	3.31988
147.951	0.947059
151.326	0.362861
154.701	0.19736
158.075	0.119568
161.45	0.006852
164.825	0.06019
168.2	0.044107
171.575	0.064236
174.949	0.222478
178.324	0.291429
181.699	0.601294
185.074	0.953249
188.449	1.57387
191.823	1.69402
195.198	1.38141
198.573	1.31769
201.948	1.66804
205.323	1.82412
208.697	2.14369
212.072	1.56797
215.447	1.64103
218.822	1.29438
222.197	1.35604
225.572	1.60438
228.946	1.34854
232.321	1.60715
235.696	1.73995
239.071	1.8785
242.446	1.61461
245.821	1.74368
249.195	1.05198
252.57	1.09798
255.945	0.551454
259.32	0.291994
262.695	0.196811
266.069	0.257969
269.444	0.430574
272.819	0.127526
276.194	0.041579
279.569	0.132286
282.943	0.334557
286.318	0.129666
289.693	0.127144
293.068	0.01263
296.443	0.02679
299.817	0.197353
303.192	0.132702
306.567	0.170119
309.942	0.393401
313.317	0.157771
316.692	0.203907
320.066	0.107535
323.441	0.025634
326.816	0.203722
330.191	0.483072
333.566	0.37991
336.94	0.101858
340.315	0.003782
343.69	0.578271
347.065	0.250116
350.44	0.028277
353.815	0.196387
357.189	0.234296
360.564	0.107631
363.939	0.444455
367.314	0.111334
370.689	0.305435
374.063	0.003503
377.438	0.140078
380.813	0.252845
384.188	0.010682
387.563	0.143353
390.938	0.145192
394.312	0.218004
397.687	0.426742
401.062	0.279253
404.437	0.030329
407.812	0.144076
411.186	0.088107
414.561	0.274403
417.936	0.336317
421.311	0.422175
424.686	0.100129
428.06	0.040219
431.435	0.077543
434.81	0.034547
438.185	0.286507
441.56	0.183477
444.935	0.423026
448.309	0.290493
451.684	0.384424
455.059	0.050175
458.434	0.091486
461.809	0.077128
465.183	0.4022
468.558	0.495539
471.933	0.004269
475.308	0.042596
478.683	0.318427
482.058	0.129014
485.432	0.117788
488.807	0.203214
492.182	0.569905
495.557	0.175326
498.932	0.370491
502.306	0.280332
505.681	0.007203
509.056	0.144568
512.431	0.025766
515.806	0.195875
519.181	0.031961
522.555	0.334174
525.93	0.352558
529.305	0.013312
532.68	0.389229
536.055	0.465448
539.429	0.591382
542.804	0.584887
546.179	1.4211
549.554	1.20667
552.929	1.09985
556.303	0.667979
559.678	0.660046
563.053	0.290789
566.428	0.235954
569.803	0.396707
573.178	0.29613
576.552	0.11467
579.927	0.270275
583.302	0.084724
586.677	0.570596
590.052	0.04245
593.426	0.175047
596.801	0.051377
600.176	0.344001
603.551	0.134019
606.926	0.172877
610.301	0.269916
613.675	0.291554
617.05	0.107967
620.425	0.479409
623.8	0.243794
627.174	0.299895
630.549	0.250335
633.924	0.005095
637.299	0.075583
640.674	0.372613
644.049	0.162214
647.423	0.254662
650.798	0.216432
654.173	0.133782
657.548	0.024907
660.923	0.335191
664.298	0.246053
667.672	0.24174
671.047	0.118058
674.422	0.214073
677.797	0.284533
681.172	0.215435
684.546	0.302215
687.921	0.303204
691.296	0.301931
694.671	0.189461
698.046	0.019132
701.42	0.484762
704.795	0.02406
708.17	0.231642
711.545	0.082482
714.92	0.242934
718.294	0.334719
721.669	0.201134
725.044	0.183305
728.419	0.235286
731.794	0.004007
735.169	0.235305
738.543	0.02404
741.918	0.018468
745.293	0.113668
748.668	0.051747
752.043	0.103346
755.418	0.171256
758.792	0.084275
762.167	0.139104
765.542	0.187816
768.917	0.106701
772.292	0.014891
775.666	0.044387
779.041	0.143435
782.416	0.171643
785.791	0.145895
789.166	0.452118
792.54	0.368318
795.915	0.244105
799.29	0.250041
802.665	0.477914
806.04	0.210877
809.414	0.203149
812.789	0.176574
816.164	0.35725
819.539	0.347313
822.914	0.423953
826.289	0.316816
829.663	0.338376
833.038	0.386913
836.413	0.309343
839.788	0.573065
843.163	0.327179
846.538	0.433519
849.912	0.393154
853.287	0.606445
856.662	0.368392
860.037	0.701595
863.412	0.592959
866.786	0.500816
870.161	0.58925
873.536	0.267568
876.911	0.273771
880.286	0.259089
883.66	0.316076
887.035	0.477001
890.41	0.361441
893.785	0.05547
897.16	0.1307
900.534	0.047317
903.909	0.084002
907.284	0.028507
910.659	0.316051
914.034	0.047954
917.409	0.227888
920.783	0.246239
924.158	0.202604
927.533	0.057775
930.908	0.184771
934.283	0.247167
937.658	0.407813
941.032	0.20035
944.407	0.233319
947.782	0.188713
951.157	0.129793
954.532	0.334991
957.906	0.380015
961.281	0.200589
964.656	0.224907
968.031	0.076303
971.406	0.005114
974.78	0.161748
978.155	0.324512
981.53	0.178471
984.905	0.058632
988.28	0.025351
991.654	0.025516
995.029	0.02379
998.404	0.013794
1001.78	0.116074
1005.15	0.138036
1008.53	0.259508
1011.9	0.031786
1015.28	0.070306
1018.65	0.318179
1022.03	0.520446
1025.4	0.107692
1028.78	0.276459
1032.15	0.455485
1035.53	0.374633
1038.9	0.30948
1042.28	0.151073
1045.65	0.213311
1049.03	0.322851
1052.4	0.460292
1055.78	0.070061
1059.15	0.326173
1062.53	0.266631
1065.9	0.257002
1069.28	0.194734
1072.65	0.434803
1076.03	0.164511
1079.4	0.261865
1082.77	0.292896
1086.15	0.347731
1089.52	0.200344
1092.9	0.306918
1096.27	0.34787
1099.65	0.01556
1103.02	0.406083
1106.4	0.207003
1109.77	0.338495
1113.15	0.240002
1116.52	0.171605
1119.9	0.222608
1123.27	0.140229
1126.65	0.001335
1130.02	0.342542
1133.4	0.31657
1136.77	0.496927
1140.15	0.283767
1143.52	0.170664
1146.9	0.394193
1150.27	0.304749
1153.65	0.08452
1157.02	0.038351
1160.39	0.043781
1163.77	0.292046
1167.14	0.126947
1170.52	0.290835
1173.89	0.113716
1177.27	0.410702
1180.64	0.388231
1184.02	0.050985
1187.39	0.412909
1190.77	0.365148
1194.14	0.23654
1197.52	0.35793
1200.89	0.448883
1204.27	0.332472
1207.64	0.334173
1211.02	0.217695
1214.39	0.296611
1217.77	0.182822
1221.14	0.214386
1224.52	0.382088
1227.89	0.184608
1231.27	0.249116
1234.64	0.015283
1238.02	0.191459
1241.39	0.220994
1244.77	0.252452
1248.14	0.11403
1251.52	0.016199
1254.89	0.001866
1258.27	0.058445
1261.64	0.286533
1265.01	0.467009
1268.39	0.225477
1271.76	0.472945
1275.14	0.291857
1278.51	0.011366
1281.89	0.205243
1285.26	0.019141
