Measurement: Raman, 532 nm, unoriented, Raman Data Processed
Mineral: Nickelskutterudite
Rruff sample: R061007
Ideal chemistry: (Ni^4+^,Co^3+^,Fe^3+^)As_3_
Locality: Hasserode, Harz, Germany
Source: Michael Scott
Description: Aggregate of silver-gray cubes, some tarnished to a brassy color
Measured chemistry: (Ni_0.48_Co_0.36_Fe_0.13_)_Σ=0.97_(As_2.79_S_0.21_)_Σ=3.00_
Raman shift (cm-1)	intensity
168.656	0
171.549	0.346016
174.441	6.60573
177.334	4.6186
180.227	6.87709
183.119	2.16815
186.012	5.57723
188.905	8.54385
191.798	15.9653
194.69	15.495
197.583	15.8162
200.476	23.5919
203.369	22.2938
206.261	30.8826
209.154	34.1125
212.047	24.4886
214.939	23.2407
217.832	23.6967
220.725	19.1982
223.617	18.3983
226.51	11.0162
229.403	7.63773
232.296	5.85053
235.188	9.59991
238.081	7.34768
240.974	15.9215
243.866	17.9653
246.759	16.8617
249.652	19.7672
252.544	15.7052
255.437	13.7533
258.33	11.7824
261.223	10.3954
264.115	2.02885
267.008	1.15642
269.901	3.83098
272.793	1.34374
275.686	1.17631
278.579	1.03727
281.471	5.64467
284.364	6.2243
287.257	2.74128
290.15	0.929916
293.042	6.99404
295.935	7.7416
298.828	0.743362
301.72	3.53312
304.613	5.00515
307.506	9.12286
310.399	3.58433
313.291	8.06126
316.184	5.39079
319.077	0.340134
321.969	6.09384
324.862	2.61772
327.755	6.36775
330.647	4.45094
333.54	7.21452
336.433	3.76531
339.325	1.88138
342.218	4.49654
345.111	1.98748
348.004	6.757
350.896	1.82404
353.789	4.09283
356.682	3.33739
359.574	2.79505
362.467	2.36533
365.36	3.87334
368.253	2.59951
371.145	3.47098
374.038	1.58096
376.931	3.0911
379.823	2.2758
382.716	5.16817
385.609	1.06478
388.502	2.60649
391.394	5.99536
394.287	2.11786
397.18	2.65361
400.072	2.64743
402.965	1.86877
405.858	3.409
408.75	5.77811
411.643	5.85352
414.536	1.86844
417.428	1.54979
420.321	1.23658
423.214	5.6158
426.107	0.636539
428.999	4.00186
431.892	4.95874
434.785	2.49822
437.677	5.73272
440.57	4.23825
443.463	6.41438
446.356	7.30616
449.248	2.82617
452.141	1.10506
455.034	4.97351
457.926	6.91779
460.819	4.73389
463.712	0.383759
466.604	4.0676
469.497	2.88648
472.39	5.61184
475.283	3.39267
478.175	6.77928
481.068	1.37242
483.961	0.455791
486.853	3.96275
489.746	3.69606
492.639	0.548065
495.531	5.49248
498.424	8.17492
501.317	9.03482
504.21	0.944038
507.102	2.48242
509.995	3.82393
512.888	2.54606
515.78	5.23653
518.673	6.09523
521.566	7.83343
524.458	2.11391
527.351	5.30718
530.244	0.586536
533.137	6.26419
536.029	5.51319
538.922	4.46651
541.815	4.8063
544.707	5.44682
547.6	0.057865
550.493	0.755848
553.386	5.83643
556.278	2.84554
559.171	7.58786
562.064	1.81608
564.956	2.73727
567.849	1.40699
570.742	4.39148
573.635	7.23639
576.527	3.33522
579.42	4.30185
582.313	4.07552
585.205	7.13447
588.098	1.50414
590.991	0.587215
593.883	5.09719
596.776	4.78199
599.669	0.465469
602.562	3.86453
605.454	2.61977
608.347	7.58582
611.24	3.30069
614.132	1.3196
617.025	5.19603
619.918	6.87569
622.81	3.76757
625.703	4.02647
628.596	1.91084
631.489	3.51782
634.381	2.27969
637.274	6.79424
640.167	6.99799
643.059	3.85205
645.952	5.3827
648.845	4.34698
651.737	4.79612
654.63	4.49559
657.523	5.14842
660.416	0.383358
663.308	1.02706
666.201	4.04517
669.094	6.27139
671.986	5.80103
674.879	4.63252
677.772	6.33157
680.664	1.48677
683.557	6.79395
686.45	3.89996
689.343	2.48012
692.235	5.40928
695.128	1.0536
698.021	3.82107
700.913	2.05896
703.806	1.56171
706.699	4.153
709.592	0.53828
712.484	0.863102
715.377	3.71267
718.27	1.57181
721.162	3.58397
724.055	3.28707
726.948	3.13312
729.841	2.15172
732.733	5.11984
735.626	0.915783
738.519	0.219296
741.411	2.54067
744.304	4.30315
747.197	2.54397
750.089	3.38287
752.982	3.5164
755.875	2.82882
758.768	1.39569
761.66	5.58651
764.553	2.12371
767.446	2.2938
770.338	2.31783
773.231	0.451981
776.124	4.35222
779.016	0.504845
781.909	4.6665
784.802	5.30404
787.694	3.59634
790.587	1.1276
793.48	4.94974
796.373	2.17261
799.265	0.874199
802.158	1.99242
805.051	3.50365
807.943	4.36867
810.836	5.73981
813.729	4.53195
816.621	4.48118
819.514	4.74596
822.407	8.3009
825.3	5.54546
828.192	2.76727
831.085	5.11299
833.978	3.66404
836.87	6.07842
839.763	4.76131
842.656	3.93272
845.549	4.68005
848.441	6.44255
851.334	3.44355
854.227	6.61423
857.119	4.73319
860.012	1.16956
862.905	0.624199
865.798	3.70873
868.69	0.591927
871.583	6.11385
874.476	4.86911
877.368	4.40258
880.261	4.24086
883.154	2.49916
886.046	9.01487
888.939	3.5837
891.832	0.782066
894.725	1.98652
897.617	0.839237
900.51	4.79151
903.403	7.01843
906.295	4.56984
909.188	5.09389
912.081	2.30566
914.973	1.58181
917.866	1.68399
920.759	4.94832
923.652	0.557632
926.544	6.03617
929.437	3.92117
932.33	1.27612
935.222	3.58881
938.115	1.26419
941.008	4.3298
943.9	3.93257
946.793	4.57818
949.686	1.45117
952.579	2.30259
955.471	3.29147
958.364	1.28565
961.257	6.44971
964.149	0.829483
967.042	3.09352
969.935	2.81876
972.827	5.77621
975.72	0.39423
978.613	2.61574
981.506	2.502
984.398	3.91742
987.291	5.7657
990.184	0.241127
993.077	4.1094
995.969	4.71539
998.862	2.07909
1001.75	5.09528
1004.65	8.08892
1007.54	2.83553
1010.43	2.31733
1013.33	1.1557
1016.22	4.27991
1019.11	5.10437
1022	5.50572
1024.9	1.38963
1027.79	1.70618
1030.68	4.03648
1033.57	3.30228
1036.47	2.83428
1039.36	4.80767
1042.25	0.665348
1045.14	4.7489
1048.04	0.262135
1050.93	3.44095
1053.82	3.61826
1056.72	1.3405
1059.61	3.33269
1062.5	4.5448
1065.39	3.84769
1068.29	3.34436
1071.18	5.71864
1074.07	2.46201
1076.96	1.03555
1079.86	3.14413
1082.75	4.91936
1085.64	1.23629
1088.54	0.890827
1091.43	2.73391
1094.32	3.65569
1097.21	1.68438
1100.11	0.043793
1103	2.3395
1105.89	2.3432
1108.79	5.15247
1111.68	7.19379
1114.57	4.25672
1117.46	3.16308
1120.36	5.1178
1123.25	6.33225
1126.14	2.40518
1129.03	3.93684
1131.93	1.45508
1134.82	8.39405
1137.71	5.44577
1140.6	4.64471
1143.5	4.11006
1146.39	5.47521
1149.28	3.06139
1152.17	3.94481
1155.07	4.98439
1157.96	1.89276
1160.85	3.77791
1163.75	1.27243
1166.64	5.68554
1169.53	0.538052
1172.42	3.48334
1175.32	2.17292
1178.21	4.56261
1181.1	0.897484
1183.99	5.8692
1186.89	3.65903
1189.78	3.26547
1192.67	3.95135
1195.57	3.95872
1198.46	5.54705
1201.35	2.8589
1204.24	4.34016
1207.14	1.51286
1210.03	5.47857
1212.92	1.44253
1215.82	6.31079
1218.71	3.01278
1221.6	0.179672
1224.49	4.55254
1227.38	0.019623
1230.28	4.96291
1233.17	6.38299
1236.06	4.06786
1238.96	2.99739
1241.85	1.11665
1244.74	3.45406
1247.63	0.498833
1250.53	0.005013
1253.42	2.97477
1256.31	4.49676
1259.2	3.70528
1262.1	4.74964
1264.99	4.93223
1267.88	4.62015
1270.78	6.84274
1273.67	6.06862
1276.56	4.9002
1279.45	2.84673
1282.35	3.93027
1285.24	3.41436
1288.13	3.63542
1291.03	4.76512
1293.92	4.08768
1296.81	0.372345
1299.7	4.21981
1302.6	0
