Measurement: Raman, 532 nm, unoriented, Raman Data Processed
Mineral: Nickelskutterudite
Rruff sample: R100194
Ideal chemistry: (Ni^4+^,Co^3+^,Fe^3+^)As_3_
Locality: Schneeberg, Saxony, Germany
Source: University of Arizona Mineral Museum
Description: Silver euhedral twinned crystals, roughly dodecahedral
Measured chemistry: (Ni_0.69_Co_0.26_Fe_0.06_)_Σ=1.01_(As_2.95_S_0.04_Bi_0.01_)_Σ=3.00_ ; Dark Band ; (Ni_0.86_Co_0.14_Fe_0.01_)_Σ=1.01_(As_2.99_S_0.01_)_Σ=3.00_  Light Band
Raman shift (cm-1)	intensity
149.371	0
152.264	2.7038
155.157	4.27294
158.049	5.79876
160.942	1.83238
163.835	9.53841
166.728	10.3623
169.62	7.19589
172.513	7.1235
175.406	8.65429
178.298	8.31166
181.191	5.34834
184.084	5.88638
186.976	5.28224
189.869	7.19071
192.762	8.52978
195.655	12.456
198.547	7.74833
201.44	11.567
204.333	9.96774
207.225	15.1182
210.118	17.2143
213.011	12.1802
215.904	8.84285
218.796	5.26234
221.689	10.4172
224.582	1.37642
227.474	1.78822
230.367	3.50155
233.26	0.653746
236.152	2.98044
239.045	5.81418
241.938	10.6252
244.831	15.6934
247.723	18.1791
250.616	21.9187
253.509	12.5998
256.401	8.60313
259.294	8.42881
262.187	4.88782
265.079	1.63736
267.972	1.65365
270.865	1.89322
273.758	0.501841
276.65	0.759846
279.543	0.886181
282.436	1.71836
285.328	3.57647
288.221	4.45959
291.114	1.76444
294.007	2.79132
296.899	1.99123
299.792	1.62151
302.685	1.08685
305.577	1.14418
308.47	6.85319
311.363	1.24937
314.255	7.32058
317.148	2.98743
320.041	2.83896
322.933	3.67976
325.826	7.55048
328.719	2.80534
331.612	6.53826
334.504	2.43657
337.397	0.559927
340.29	4.05351
343.183	3.38218
346.075	3.26726
348.968	5.0087
351.861	1.10932
354.753	1.69233
357.646	2.72765
360.539	0.625221
363.431	1.95995
366.324	4.05801
369.217	2.1453
372.11	0.936112
375.002	1.73685
377.895	3.45675
380.788	2.90551
383.68	1.3475
386.573	3.83814
389.466	4.06908
392.358	5.01506
395.251	5.26957
398.144	2.75357
401.036	2.05576
403.929	0.574284
406.822	3.69406
409.715	4.07393
412.607	0.314899
415.5	2.78205
418.393	1.96285
421.285	1.3482
424.178	5.66365
427.071	3.09936
429.964	3.94845
432.856	4.34984
435.749	2.61082
438.642	1.39728
441.534	2.08982
444.427	3.04902
447.32	0.33663
450.212	3.49813
453.105	1.81315
455.998	1.30625
458.891	5.12489
461.783	4.29192
464.676	2.5636
467.569	0.726079
470.461	3.81007
473.354	2.42986
476.247	4.2481
479.139	0.996793
482.032	2.37402
484.925	2.64086
487.818	1.48481
490.71	2.17119
493.603	1.95706
496.496	1.94868
499.388	2.37695
502.281	3.69574
505.174	0.64027
508.067	0.181872
510.959	1.58037
513.852	4.2893
516.745	0.987094
519.637	0.040326
522.53	1.92676
525.423	0.387544
528.316	3.32737
531.208	0.908391
534.101	4.92305
536.994	4.34084
539.886	2.91634
542.779	3.33886
545.672	0.108367
548.564	2.01949
551.457	4.41403
554.35	1.14907
557.242	1.22273
560.135	1.2816
563.028	5.99667
565.921	0.548571
568.813	1.9651
571.706	0.528863
574.599	4.07823
577.491	0.939213
580.384	3.21883
583.277	0.101371
586.17	2.41522
589.062	2.51879
591.955	5.0224
594.848	4.67352
597.74	5.58954
600.633	1.83533
603.526	4.28544
606.418	2.00174
609.311	3.2556
612.204	5.61763
615.097	7.58662
617.989	4.80862
620.882	2.9347
623.775	7.22741
626.667	3.74578
629.56	4.77489
632.453	4.91562
635.346	2.35067
638.238	3.65356
641.131	4.95184
644.024	4.88951
646.916	8.02303
649.809	2.98345
652.702	2.52497
655.594	5.59831
658.487	3.14744
661.38	2.8548
664.273	1.75689
667.165	1.78806
670.058	3.68794
672.951	5.65547
675.843	3.56281
678.736	4.61713
681.629	7.2536
684.521	3.0855
687.414	5.03135
690.307	4.90731
693.199	2.25984
696.092	2.04559
698.985	5.77316
701.878	4.95033
704.77	5.77941
707.663	2.4778
710.556	2.0123
713.448	1.04167
716.341	5.71471
719.234	1.48874
722.127	6.20502
725.019	2.31266
727.912	1.56299
730.805	4.45548
733.697	1.70993
736.59	4.10588
739.483	4.01677
742.375	3.24714
745.268	5.00993
748.161	0.086149
751.054	5.38601
753.946	4.72469
756.839	0.930786
759.732	5.44269
762.625	5.38728
765.517	4.74388
768.41	1.82874
771.303	3.90758
774.195	0.4575
777.088	2.63659
779.981	3.29605
782.873	3.31321
785.766	1.84872
788.659	4.40697
791.552	0.641174
794.444	3.26723
797.337	3.64063
800.23	3.26694
803.122	2.73431
806.015	3.47501
808.908	3.61772
811.8	4.59308
814.693	0.962344
817.586	3.07694
820.479	2.92528
823.371	1.46545
826.264	1.79245
829.157	2.72184
832.049	1.35678
834.942	2.66774
837.835	0.15208
840.727	4.18619
843.62	5.85901
846.513	3.56059
849.405	6.68482
852.298	2.87571
855.191	4.24878
858.084	4.38368
860.976	0.993605
863.869	0.960634
866.762	1.91946
869.654	5.60935
872.547	5.12422
875.44	5.58028
878.333	4.28991
881.225	6.30781
884.118	2.20104
887.011	1.83975
889.903	2.90595
892.796	2.41857
895.689	2.55508
898.582	2.64328
901.474	4.01209
904.367	0.257036
907.26	2.34516
910.152	0.262729
913.045	0.580977
915.938	5.04591
918.83	0.97192
921.723	0.490925
924.616	2.21801
927.509	2.74675
930.401	1.60827
933.294	3.82391
936.187	1.47965
939.079	1.53974
941.972	0.087037
944.865	3.00679
947.757	3.86178
950.65	1.01372
953.543	3.15609
956.436	2.6393
959.328	0.958959
962.221	5.91637
965.114	4.33217
968.006	2.01886
970.899	4.20552
973.792	0.415172
976.684	4.78596
979.577	1.48309
982.47	3.15739
985.362	2.06105
988.255	3.65774
991.148	4.34036
994.041	4.15398
996.933	3.79075
999.826	4.68829
1002.72	5.50062
1005.61	4.78414
1008.5	2.30913
1011.4	2.24135
1014.29	5.44518
1017.18	3.91444
1020.08	6.87479
1022.97	5.44187
1025.86	2.53851
1028.75	6.14832
1031.65	5.84991
1034.54	4.64778
1037.43	3.17691
1040.32	1.5171
1043.22	4.07997
1046.11	4.83093
1049	3.73063
1051.89	2.89225
1054.79	2.39081
1057.68	2.12108
1060.57	5.7629
1063.47	5.61717
1066.36	3.72221
1069.25	1.27084
1072.14	1.56929
1075.04	1.6547
1077.93	4.42744
1080.82	2.97143
1083.71	2.21391
1086.61	1.07161
1089.5	3.04855
1092.39	0.67178
1095.29	3.19209
1098.18	3.00507
1101.07	0.619055
1103.96	3.27625
1106.86	2.09941
1109.75	0.416604
1112.64	1.64618
1115.53	0.843951
1118.43	3.62281
1121.32	0.648397
1124.21	2.81092
1127.11	3.16325
1130	2.87247
1132.89	4.04821
1135.78	3.13865
1138.68	4.78979
1141.57	0.861574
1144.46	5.02219
1147.35	1.86915
1150.25	3.94923
1153.14	4.34427
1156.03	2.16836
1158.92	2.26201
1161.82	5.45238
1164.71	3.15441
1167.6	4.35684
1170.5	6.36611
1173.39	1.60773
1176.28	2.53738
1179.17	5.02494
1182.07	2.70986
1184.96	4.28848
1187.85	2.05194
1190.74	3.06333
1193.64	2.86606
1196.53	0.971911
1199.42	1.03957
1202.32	0.251167
1205.21	1.04058
1208.1	5.37348
1210.99	3.48121
1213.89	5.85256
1216.78	5.84261
1219.67	5.3958
1222.56	1.93875
1225.46	4.33016
1228.35	4.099
1231.24	1.94347
1234.13	2.31814
1237.03	1.92271
1239.92	2.22215
1242.81	4.94081
1245.71	1.59542
1248.6	2.14598
1251.49	6.01971
1254.38	0.035617
1257.28	3.41689
1260.17	2.43144
1263.06	0.524943
1265.95	1.59352
1268.85	2.90853
1271.74	2.54071
1274.63	3.272
1277.53	1.35341
1280.42	1.91306
1283.31	3.87257
1286.2	0.96918
1289.1	5.07509
1291.99	1.47568
1294.88	2.4648
1297.78	4.38369
1300.67	1.95327
