Measurement: Raman, 785 nm, unoriented, Raman Data Processed
Mineral: Nickeline
Rruff sample: R060906
Ideal chemistry: NiAs
Locality: Moose Horn mine, Timiskaming district, Ontario, Canada
Source: Royal Ontario Museum
Description: Massive metallic lustered tarnished to dull copper color
Measured chemistry: Ni_1.00_(As_0.98_Sb_0.02_)_Î£=1_ ; trace amounts of Co and Fe
Raman shift (cm-1)	intensity
123.456	0
126.349	464.644
129.241	1826.26
132.134	2397.93
135.027	1293.2
137.919	189.345
140.812	151.792
143.705	557.126
146.597	1210.74
149.49	1487.88
152.383	1141.66
155.276	1013.09
158.168	795.593
161.061	781.857
163.954	832.776
166.846	571.331
169.739	495.808
172.632	346.322
175.524	124.609
178.417	142.94
181.31	79.089
184.203	40.8337
187.095	8.29102
189.988	4.96692
192.881	77.4276
195.773	2.74817
198.666	12.4941
201.559	9.48669
204.452	1.49658
207.344	19.3271
210.237	7.58655
213.13	31.4054
216.022	5.8269
218.915	29.5614
221.808	17.8344
224.7	26.937
227.593	34.8673
230.486	38.7379
233.379	19.4851
236.271	47.6986
239.164	47.1014
242.057	41.4614
244.949	51.0481
247.842	82.4134
250.735	80.5559
253.627	86.2942
256.52	108.104
259.413	109.848
262.305	80.842
265.198	111.161
268.091	104.909
270.984	69.2836
273.876	36.5535
276.769	48.6372
279.662	71.4073
282.554	84.7783
285.447	65.5927
288.34	5.59277
291.233	25.5078
294.125	62.6741
297.018	71.1974
299.911	77.491
302.803	98.3652
305.696	99.704
308.589	67.0067
311.481	78.9504
314.374	75.7676
317.267	48.1382
320.159	35.2114
323.052	25.7588
325.945	76.7255
328.838	61.4312
331.73	67.2291
334.623	84.0781
337.516	57.4553
340.408	31.5316
343.301	64.7025
346.194	50.2294
349.087	35.4961
351.979	39.5751
354.872	80.5558
357.765	51.0832
360.657	9.30176
363.55	2.48315
366.443	33.127
369.335	13.9075
372.228	46.1875
375.121	44.8853
378.014	22.6374
380.906	34.2757
383.799	14.2429
386.692	29.8165
389.584	42.1196
392.477	21.5375
395.37	25.1066
398.262	25.2472
401.155	2.22839
404.048	34.437
406.941	13.9039
409.833	8.21021
412.726	37.7496
415.619	11.856
418.511	40.7011
421.404	22.3085
424.297	19.1394
427.19	21.798
430.082	27.3959
432.975	20.9692
435.868	27.4504
438.76	20.699
441.653	55.4403
444.546	33.6442
447.438	72.4689
450.331	18.614
453.224	12.0868
456.116	39.392
459.009	36.8261
461.902	23.7656
464.795	29.944
467.687	18.5386
470.58	23.1743
473.473	29.3832
476.365	34.3066
479.258	15.541
482.151	2.03442
485.043	50.507
487.936	53.6019
490.829	47.4517
493.722	31.4638
496.614	18.1775
499.507	43.9094
502.4	40.1719
505.292	25.7927
508.185	19.48
511.078	11.0136
513.971	17.2826
516.863	36.6975
519.756	40.3038
522.649	24.2722
525.541	35.3494
528.434	41.4938
531.327	33.7891
534.219	31.7662
537.112	28.3742
540.005	27.1419
542.898	41.7092
545.79	78.8336
548.683	43.6627
551.576	41.0188
554.468	43.4332
557.361	49.7431
560.254	57.6441
563.146	58.4063
566.039	24.5535
568.932	31.1706
571.824	2.64026
574.717	20.0219
577.61	13.3226
580.503	23.0581
583.395	35.6686
586.288	63.6023
589.181	50.3486
592.073	19.9027
594.966	44.7274
597.859	46.4916
600.751	47.644
603.644	1.50525
606.537	53.8086
609.43	24.6997
612.322	46.835
615.215	47.1786
618.108	35.5365
621	1.03577
623.893	20.5715
626.786	5.49268
629.678	29.6984
632.571	49.4327
635.464	62.0515
638.357	59.9482
641.249	17.8503
644.142	35.1799
647.035	8.81641
649.927	23.6706
652.82	13.1993
655.713	34.2942
658.606	4.13904
661.498	16.8451
664.391	32.0627
667.284	20.3949
670.176	46.5582
673.069	25.5458
675.962	56.3882
678.854	23.6963
681.747	34.6038
684.64	33.2069
687.533	20.2942
690.425	33.3556
693.318	29.1209
696.211	42.5515
699.103	42.2865
701.996	53.7803
704.889	33.4473
707.781	13.9935
710.674	20.8988
713.567	37.5919
716.46	42.3179
719.352	38.9641
722.245	40.1182
725.138	18.442
728.03	69.5315
730.923	0.461182
733.816	24.7262
736.708	17.8287
739.601	5.7821
742.494	36.4929
745.386	18.5891
748.279	28.3539
751.172	33.6475
754.065	76.8502
756.957	50.7454
759.85	30.9576
762.743	22.9299
765.635	19.6215
768.528	8.93762
771.421	2.66638
774.313	40.5494
777.206	18.0551
780.099	69.0478
782.992	69.5188
785.884	56.9149
788.777	50.2308
791.67	69.6758
794.562	57.7379
797.455	10.663
800.348	21.0204
803.24	4.84814
806.133	32.5658
809.026	34.7507
811.919	8.17432
814.811	64.2461
817.704	39.1207
820.597	68.4823
823.489	19.3361
826.382	8.23084
829.275	28.3236
832.168	20.4041
835.06	35.8446
837.953	37.4215
840.846	50.3833
843.738	45.2589
846.631	48.3531
849.524	62.7954
852.416	37.7471
855.309	68.3408
858.202	54.4388
861.095	7.44568
863.987	13.4525
866.88	52.509
869.773	15.3727
872.665	25.7398
875.558	31.5072
878.451	44.5582
881.343	24.7155
884.236	31.6034
887.129	16.1776
890.021	13.7585
892.914	6.63415
895.807	16.5842
898.7	25.1378
901.592	31.8439
904.485	42.7186
907.378	48.0836
910.27	49.2345
913.163	28.0012
916.056	8.10364
918.949	61.8191
921.841	24.9866
924.734	18.7506
927.627	57.0636
930.519	13.6045
933.412	37.3115
936.305	20.0166
939.197	55.0654
942.09	31.528
944.983	49.0171
947.876	13.7661
950.768	24.0771
953.661	14.6191
956.554	17.2975
959.446	43.0872
962.339	43.5342
965.232	34.6448
968.125	40.9426
971.017	44.9131
973.91	45.9042
976.803	43.6718
979.695	22.129
982.588	52.1039
985.481	10.866
988.373	17.6443
991.266	28.9788
994.159	7.05078
997.052	31.2581
999.944	43.1467
1002.84	30.7416
1005.73	41.5914
1008.62	44.0546
1011.51	41.9028
1014.41	56.8317
1017.3	68.0542
1020.19	8.16809
1023.09	22.2841
1025.98	16.2643
1028.87	2.67248
1031.76	33.4847
1034.66	27.3729
1037.55	17.3389
1040.44	53.4326
1043.34	46.6292
1046.23	9.51953
1049.12	45.4645
1052.01	3.55896
1054.91	30.8401
1057.8	15.5587
1060.69	35.4943
1063.58	15.0853
1066.48	14.1648
1069.37	4.16919
1072.26	9.25549
1075.15	31.1182
1078.05	29.2269
1080.94	37.6054
1083.83	36.4752
1086.72	40.0964
1089.62	43.3133
1092.51	1.7594
1095.4	32.2328
1098.3	13.5547
1101.19	24.4965
1104.08	42.6495
1106.97	25.5433
1109.87	8.05872
1112.76	5.3103
1115.65	5.505
1118.55	37.7974
1121.44	17.6532
1124.33	21.9814
1127.22	21.7841
1130.12	15.0472
1133.01	6.58728
1135.9	41.3929
1138.79	39.1167
1141.69	17.2423
1144.58	24.5873
1147.47	23.1455
1150.37	25.8133
1153.26	40.144
1156.15	19.7068
1159.04	52.1097
1161.93	18.8544
1164.83	10.702
1167.72	23.1155
1170.61	76.7855
1173.51	23.2578
1176.4	39.3705
1179.29	44.7482
1182.18	3.55212
1185.08	34.429
1187.97	16.6948
1190.86	0.759644
1193.76	24.8209
1196.65	47.2947
1199.54	51.0939
1202.43	5.40418
1205.33	23.175
1208.22	11.2627
1211.11	75.2073
1214	66.5281
1216.9	68.2201
1219.79	3.81299
1222.68	56.8064
1225.58	28.5413
1228.47	10.8344
