Measurement: Raman, 532 nm, unoriented, Raman Data Processed
Mineral: Nickelskutterudite
Rruff sample: R100196
Ideal chemistry: (Ni^4+^,Co^3+^,Fe^3+^)As_3_
Locality: Alhambra mine, Burro Mountains, Grant County, New Mexico, USA
Source: Ron Gibbs
Description: Silver dodecahedral crystals, dissolved out of calcite
Measured chemistry: (Ni_0.62_Co_0.28_Fe_0.12_)_Σ=1.02_(As_2.95_S_0.05_)_Σ=3.00_
Raman shift (cm-1)	intensity
166.728	0
169.62	6.95132
172.513	14.4809
175.406	4.59252
178.298	5.21764
181.191	3.20811
184.084	9.06514
186.976	8.66405
189.869	9.52167
192.762	19.9994
195.655	21.5868
198.547	26.1928
201.44	24.5025
204.333	20.3991
207.225	22.2001
210.118	24.2358
213.011	12.6025
215.904	12.843
218.796	7.51289
221.689	5.85917
224.582	5.71429
227.474	4.2809
230.367	7.46405
233.26	10.3083
236.152	7.16619
239.045	13.212
241.938	15.5669
244.831	21.3633
247.723	29.078
250.616	24.3698
253.509	14.1191
256.401	12.5568
259.294	11.2711
262.187	7.43843
265.079	0.955368
267.972	6.64279
270.865	1.97779
273.758	1.69104
276.65	3.25026
279.543	0.91713
282.436	0.346855
285.328	2.07732
288.221	4.81842
291.114	0.487099
294.007	2.18492
296.899	1.79789
299.792	5.71899
302.685	0.358292
305.577	1.88302
308.47	1.85153
311.363	0.352539
314.255	0.140785
317.148	4.07604
320.041	5.13828
322.933	6.71323
325.826	2.75733
328.719	4.49904
331.612	4.3535
334.504	3.89223
337.397	1.36403
340.29	1.5995
343.183	0.775436
346.075	2.78667
348.968	2.93421
351.861	1.62449
354.753	2.98292
357.646	2.27349
360.539	2.95161
363.431	1.89679
366.324	2.88339
369.217	1.64623
372.11	4.77851
375.002	5.26759
377.895	1.80378
380.788	3.55576
383.68	4.81493
386.573	2.13779
389.466	5.36058
392.358	3.83221
395.251	5.03839
398.144	2.51709
401.036	3.42764
403.929	5.66565
406.822	6.59321
409.715	5.52438
412.607	2.54162
415.5	1.71428
418.393	3.67553
421.285	2.55183
424.178	1.91938
427.071	5.93413
429.964	0.56189
432.856	1.14692
435.749	3.08308
438.642	2.65995
441.534	0.828476
444.427	5.10118
447.32	7.90498
450.212	1.6807
453.105	0.363998
455.998	8.05766
458.891	6.83962
461.783	5.91972
464.676	3.57189
467.569	0.436462
470.461	5.61735
473.354	6.18016
476.247	3.90909
479.139	1.8822
482.032	1.92834
484.925	6.65588
487.818	7.0307
490.71	5.21796
493.603	4.21983
496.496	4.94297
499.388	1.37782
502.281	5.05711
505.174	3.14742
508.067	1.75681
510.959	1.25162
513.852	3.57832
516.745	0.876549
519.637	1.77913
522.53	0.260712
525.423	5.30181
528.316	2.7184
531.208	1.30291
534.101	6.07915
536.994	2.61144
539.886	5.16483
542.779	1.10841
545.672	8.09006
548.564	3.06019
551.457	6.68497
554.35	3.46539
557.242	2.38223
560.135	3.2736
563.028	6.41204
565.921	6.30047
568.813	3.68596
571.706	7.55545
574.599	2.82659
577.491	5.40992
580.384	4.74697
583.277	5.79012
586.17	3.71245
589.062	5.22804
591.955	3.39266
594.848	6.61558
597.74	3.12457
600.633	3.14362
603.526	5.35368
606.418	2.39818
609.311	2.74798
612.204	3.73085
615.097	1.02406
617.989	5.57953
620.882	1.7416
623.775	5.08313
626.667	0.377663
629.56	2.93296
632.453	3.82384
635.346	5.87568
638.238	4.59191
641.131	5.80431
644.024	3.98978
646.916	6.45338
649.809	2.14412
652.702	2.01656
655.594	0.93895
658.487	5.10651
661.38	1.27022
664.273	1.53236
667.165	1.89735
670.058	1.7677
672.951	3.06247
675.843	1.92269
678.736	5.8815
681.629	5.28917
684.521	8.15769
687.414	2.91406
690.307	2.43398
693.199	4.71641
696.092	2.05109
698.985	1.53947
701.878	5.01092
704.77	3.84496
707.663	4.25534
710.556	2.174
713.448	2.03793
716.341	5.05408
719.234	1.67638
722.127	2.1897
725.019	5.11452
727.912	4.06097
730.805	4.16655
733.697	1.48412
736.59	7.14091
739.483	0.114059
742.375	5.22082
745.268	5.02145
748.161	5.73951
751.054	3.63823
753.946	1.00388
756.839	2.33334
759.732	4.74149
762.625	4.13117
765.517	0.433517
768.41	6.36326
771.303	5.99324
774.195	3.52074
777.088	1.40844
779.981	6.11317
782.873	2.62598
785.766	3.21926
788.659	1.33825
791.552	1.64374
794.444	5.05457
797.337	5.22948
800.23	1.99236
803.122	7.18574
806.015	0.556168
808.908	1.04707
811.8	4.56442
814.693	5.46204
817.586	3.49285
820.479	3.1885
823.371	2.1843
826.264	3.61268
829.157	3.52548
832.049	4.84811
834.942	6.93037
837.835	2.91711
840.727	4.62413
843.62	4.9661
846.513	5.67004
849.405	1.17918
852.298	4.98704
855.191	5.91917
858.084	3.89349
860.976	4.91497
863.869	4.68476
866.762	4.25455
869.654	2.6062
872.547	4.91711
875.44	4.46233
878.333	2.37115
881.225	0.432709
884.118	0.359222
887.011	0.307533
889.903	2.67235
892.796	1.12485
895.689	4.10434
898.582	3.13511
901.474	5.1704
904.367	3.31023
907.26	3.72946
910.152	2.58426
913.045	0.612808
915.938	2.14495
918.83	3.83408
921.723	2.12124
924.616	1.9152
927.509	2.68874
930.401	7.4595
933.294	8.67973
936.187	3.86176
939.079	0.896515
941.972	1.03729
944.865	2.507
947.757	5.45428
950.65	0.997452
953.543	5.07292
956.436	2.76588
959.328	5.28146
962.221	4.06471
965.114	4.80354
968.006	8.64607
970.899	0.077812
973.792	3.45235
976.684	4.33756
979.577	2.74049
982.47	1.00337
985.362	3.09263
988.255	4.75413
991.148	4.00614
994.041	5.05895
996.933	5.58006
999.826	4.73978
1002.72	2.63058
1005.61	2.39781
1008.5	5.19091
1011.4	5.25117
1014.29	3.76285
1017.18	3.0568
1020.08	3.46201
1022.97	2.94766
1025.86	0.826042
1028.75	2.17804
1031.65	5.99349
1034.54	2.29314
1037.43	5.2113
1040.32	6.5001
1043.22	0.170822
1046.11	2.95998
1049	2.34188
1051.89	5.47578
1054.79	3.91643
1057.68	1.3371
1060.57	4.73498
1063.47	6.74428
1066.36	0.875961
1069.25	0.679703
1072.14	4.93141
1075.04	5.12891
1077.93	4.47005
1080.82	0.322227
1083.71	6.06071
1086.61	6.88703
1089.5	0.701889
1092.39	3.17235
1095.29	1.1138
1098.18	1.00716
1101.07	1.44354
1103.96	5.5022
1106.86	1.86523
1109.75	4.06335
1112.64	2.3853
1115.53	2.04211
1118.43	7.06735
1121.32	1.86321
1124.21	6.45443
1127.11	1.74431
1130	1.50782
1132.89	4.54278
1135.78	2.45038
1138.68	3.54775
1141.57	6.3861
1144.46	2.70602
1147.35	3.46194
1150.25	4.85431
1153.14	6.35799
1156.03	1.82592
1158.92	3.13608
1161.82	3.34743
1164.71	5.46401
1167.6	3.45639
1170.5	8.92354
1173.39	2.24454
1176.28	2.79001
1179.17	0.125458
1182.07	2.23308
1184.96	2.49881
1187.85	5.04381
1190.74	4.88038
1193.64	0.157768
1196.53	5.46936
1199.42	0.322273
1202.32	4.38435
1205.21	5.32915
1208.1	0.363548
1210.99	1.52704
1213.89	4.54179
1216.78	3.80601
1219.67	3.44849
1222.56	1.33634
1225.46	5.61778
1228.35	5.19983
1231.24	6.1914
1234.13	5.51443
1237.03	2.05204
1239.92	1.33347
1242.81	6.88122
1245.71	5.2515
1248.6	0.510712
1251.49	4.48949
1254.38	4.88495
1257.28	0.824448
1260.17	3.645
1263.06	4.96928
1265.95	5.06126
1268.85	2.04364
1271.74	1.3006
1274.63	1.58888
1277.53	5.50553
1280.42	2.84943
1283.31	1.81622
1286.2	1.61957
1289.1	4.61611
1291.99	3.77576
1294.88	6.08881
1297.78	1.53981
1300.67	2.90244
