Measurement: Raman, 532 nm, unoriented, Raman Data Processed
Mineral: Nierite
Rruff sample: R120128
Ideal chemistry: Si_3_N_4_
Locality: Synthetic
Source: UBE America Inc.
Description: White powder
Raman shift (cm-1)	intensity
193.499	0
196.392	392.172
199.284	404.309
202.177	147.076
205.07	26.6055
207.962	132.717
210.855	375.453
213.748	520.922
216.64	497.391
219.533	362.44
222.426	317.332
225.319	279.272
228.211	396.228
231.104	456.4
233.997	331.371
236.889	301.514
239.782	317.555
242.675	427.486
245.567	431.488
248.46	402.154
251.353	451.959
254.245	717.207
257.138	1355.34
260.031	1833.05
262.924	272.305
265.816	173.397
268.709	179.772
271.602	95.7598
274.494	74.4766
277.387	75.2559
280.28	75.1133
283.173	26.9023
286.065	10.7305
288.958	54.4238
291.851	49.6641
294.743	1.95703
297.636	41.8652
300.529	18.5176
303.421	7.50781
306.314	10.6934
309.207	4.62305
312.099	50.2031
314.992	59.0605
317.885	27.1543
320.778	81.0273
323.67	10.1465
326.563	70.6699
329.456	80.3926
332.348	24.4707
335.241	108.133
338.134	117.162
341.027	149.613
343.919	179.682
346.812	204.664
349.705	251.848
352.597	238.736
355.49	277.309
358.383	246.262
361.276	405.254
364.168	641.338
367.061	235.012
369.954	119.711
372.846	130.717
375.739	130.383
378.632	144.006
381.524	84.3008
384.417	51.0488
387.31	77.9551
390.202	149.301
393.095	131.754
395.988	100.953
398.881	90.1387
401.773	56.0508
404.666	101.352
407.559	76.5176
410.451	113.451
413.344	199.611
416.237	141.127
419.13	73.3164
422.022	88.7676
424.915	16.7383
427.808	60.9668
430.7	117.451
433.593	67.4922
436.486	49.2539
439.378	67.293
442.271	167.494
445.164	121.598
448.057	135.635
450.949	116.85
453.842	37.8086
456.735	50.7246
459.627	87.9688
462.52	38.75
465.413	11.4766
468.305	65.0019
471.198	51.9062
474.091	80.6641
476.983	165.223
479.876	175.254
482.769	116.842
485.662	98.2656
488.554	96.2031
491.447	87.8379
494.34	60.7852
497.232	53.0469
500.125	123.481
503.018	137.398
505.911	118.018
508.803	141.641
511.696	203.555
514.589	160.102
517.481	27.832
520.374	8.55078
523.267	53.6914
526.159	68.2168
529.052	10.6582
531.945	29.043
534.837	130.562
537.73	139.154
540.623	87.707
543.516	40.4961
546.408	26.7773
549.301	61.2715
552.194	64.8203
555.086	48.8281
557.979	56.1973
560.872	70.3184
563.764	17.4395
566.657	33.5137
569.55	35.5742
572.443	14.9219
575.335	4.30273
578.228	4.5
581.121	9.70508
584.013	17.8555
586.906	162.119
589.799	135.764
592.692	124.482
595.584	151.123
598.477	171.522
601.37	183.037
604.262	125.674
607.155	136.385
610.048	172.109
612.94	134.848
615.833	105.752
618.726	208.414
621.619	222.565
624.511	155.797
627.404	90.0938
630.297	108.144
633.189	93.6465
636.082	81.3984
638.975	31.5156
641.867	35.1504
644.76	22.3086
647.653	30.6797
650.545	36.2656
653.438	120.186
656.331	80.2988
659.224	120.9
662.116	136.164
665.009	197.443
667.902	175.426
670.794	124.727
673.687	178.762
676.58	208.699
679.472	166.883
682.365	165.258
685.258	113.01
688.151	163.621
691.043	235.961
693.936	201.596
696.829	122.697
699.721	89.4746
702.614	45.0801
705.507	69.0059
708.399	82.418
711.292	63.3066
714.185	8.50977
717.078	56.9102
719.97	76.1758
722.863	93.0176
725.756	91.5762
728.648	89.7129
731.541	60.0586
734.434	82.6289
737.327	56.9668
740.219	87.5352
743.112	59.541
746.005	123.654
748.897	95.0293
751.79	84.7051
754.683	16.2949
757.575	15.0059
760.468	25.0195
763.361	98.1641
766.254	64.9316
769.146	84.2031
772.039	69.8008
774.932	82.2344
777.824	72.4394
780.717	19.4844
783.61	4.23047
786.502	19.5
789.395	28.7207
792.288	62.1328
795.181	92.584
798.073	59.0137
800.966	21.6387
803.859	38.2344
806.751	33.7969
809.644	85.5332
812.537	49.5312
815.429	48.1074
818.322	54.5195
821.215	163.344
824.107	168.129
827	125.842
829.893	28.6211
832.786	0.433594
835.678	40.8848
838.571	65.8672
841.464	174.984
844.356	179.566
847.249	146.422
850.142	76.9043
853.034	142.795
855.927	202.873
858.82	267.213
861.713	303.736
864.605	304.141
867.498	247.769
870.391	208.744
873.283	147.123
876.176	82.6426
879.069	88.3066
881.962	8.99805
884.854	27.5488
887.747	36.541
890.64	59.4121
893.532	66.6231
896.425	107.029
899.318	177.213
902.21	200.676
905.103	214.344
907.996	233.852
910.889	253.111
913.781	243.143
916.674	197.934
919.567	206.816
922.459	188.815
925.352	203.147
928.245	154.299
931.137	88.7715
934.03	185.461
936.923	165.006
939.816	168.213
942.708	154.383
945.601	228.262
948.494	219.504
951.386	98.8906
954.279	5.16797
957.172	42.3242
960.064	59.4258
962.957	109.053
965.85	166.272
968.742	285.195
971.635	256.404
974.528	343.055
977.421	262.223
980.313	161.082
983.206	146.644
986.099	161.387
988.991	156.984
991.884	115.986
994.777	77.2754
997.669	79.7617
1000.56	133.781
1003.46	61.5391
1006.35	99.5332
1009.24	145.363
1012.13	182.111
1015.03	151.697
1017.92	112.576
1020.81	170.252
1023.7	165.619
1026.6	229.244
1029.49	301.846
1032.38	256.613
1035.28	176.422
1038.17	70.9297
1041.06	60.6387
1043.95	149.606
1046.85	96.8418
1049.74	99.4629
1052.63	93.8867
1055.52	48.375
1058.42	6.26953
1061.31	5.07617
1064.2	23
1067.09	0.078125
1069.99	40.1191
1072.88	7.72656
1075.77	1.8418
1078.66	25.707
1081.56	42.9766
1084.45	124.76
1087.34	75.0957
1090.24	59.3711
1093.13	79.0644
1096.02	86.0957
1098.91	76.7812
1101.81	111.752
1104.7	59.6133
1107.59	4.84375
1110.48	45.3887
1113.38	80.7012
1116.27	100.481
1119.16	96.4863
1122.06	112.078
1124.95	81.4043
1127.84	59.3906
1130.73	98.9121
1133.63	134.152
1136.52	104.246
1139.41	63.3906
1142.3	45.9082
1145.2	58.3262
1148.09	93.7383
1150.98	65.25
1153.88	61.7578
1156.77	9.73438
1159.66	0.318359
1162.55	46.0508
1165.45	37.8652
1168.34	26.6289
1171.23	78.8984
1174.12	132.309
1177.02	122.832
1179.91	110.85
1182.8	79.2285
1185.69	66.1328
1188.59	18.1895
1191.48	37.6191
1194.37	48.9688
1197.27	145.322
1200.16	166.012
1203.05	81.418
1205.94	140.721
1208.84	170.549
1211.73	180.727
1214.62	137.522
1217.52	32.9863
1220.41	45.1855
1223.3	57.8281
1226.19	73.3281
1229.09	48.7168
1231.98	80.8867
1234.87	33.1855
1237.76	35.1445
1240.66	6.44727
1243.55	40.2891
1246.44	70.1953
1249.33	103.9
1252.23	50.9062
1255.12	4.56445
1258.01	116.795
1260.9	157.596
1263.8	128.643
1266.69	82.5371
1269.58	88.4434
1272.48	51.2539
1275.37	97.8535
1278.26	111.26
1281.15	94.2305
1284.05	119.764
1286.94	75.8906
1289.83	79.4551
1292.72	2.87305
1295.62	72.5332
1298.51	53.8516
1301.4	7.66797
