Measurement: Raman, 532 nm, unoriented, Raman Data Processed
Mineral: Nioboaeschynite-(Ce)
Rruff sample: R110056
Ideal chemistry: (Ce^3+^,Ca)(Nb^5+^,Ti^4+^)_2_(O,OH)_6_
Locality: Upper Fir carbonatite, Kamloops mining division, British Columbia, Canada
Source: Don Doell
Description: Black platy crystals and cleavages, massive
Measured chemistry: (Ce_0.35_Ca_0.25_Nd_0.14_La_0.12_Th_0.06_Pr_0.04_Fe_0.03_Sm_0.02_Y_0.02_Gd_0.01_Sr_0.01_)_Σ=1.05_(Nb_1.13_Ti_0.86_)_Σ=1.99_O_6_
Raman shift (cm-1)	intensity
209.575	0.176239
212.468	3.05292
215.36	3.06659
218.253	7.75284
221.146	6.84985
224.038	9.5918
226.931	9.89371
229.824	11.0854
232.717	13.9518
235.609	12.4753
238.502	15.2231
241.395	12.5822
244.287	14.0612
247.18	15.8648
250.073	10.3113
252.965	8.6524
255.858	11.1367
258.751	10.4761
261.644	6.06039
264.536	10.1585
267.429	7.74057
270.322	11.329
273.214	12.0822
276.107	15.5244
279	18.3492
281.892	19.9022
284.785	18.2912
287.678	20.412
290.571	20.5584
293.463	24.5997
296.356	25.8857
299.249	21.4442
302.141	19.6133
305.034	17.3946
307.927	14.6035
310.82	13.1935
313.712	7.68558
316.605	9.10468
319.498	6.16467
322.39	4.42248
325.283	2.83252
328.176	1.87659
331.068	0.062286
333.961	1.33496
336.854	2.52579
339.747	1.05417
342.639	0.817291
345.532	0.548889
348.425	1.07816
351.317	0.886688
354.21	1.57336
357.103	2.86963
359.995	0.940369
362.888	0.039581
365.781	0.237732
368.673	0.229858
371.566	0.281189
374.459	1.74924
377.352	1.50974
380.244	1.0968
383.137	0.643341
386.03	4.1019
388.922	3.01898
391.815	2.4534
394.708	4.35391
397.601	5.81775
400.493	6.89154
403.386	6.80487
406.279	9.13654
409.171	10.5141
412.064	12.002
414.957	13.6611
417.849	17.0803
420.742	12.8669
423.635	14.7066
426.527	17.183
429.42	19.3204
432.313	20.2838
435.206	20.3471
438.098	22.6414
440.991	20.6467
443.884	20.8932
446.776	21.0245
449.669	17.0399
452.562	17.0455
455.454	11.9898
458.347	14.4961
461.24	12.9075
464.133	10.8487
467.025	9.70471
469.918	6.69721
472.811	5.26245
475.703	3.57559
478.596	2.32752
481.489	1.04987
484.382	0.798645
487.274	1.49045
490.167	0.112457
493.06	0.551941
495.952	0.970734
498.845	2.27646
501.738	0.030975
504.63	0.107849
507.523	1.62607
510.416	1.65884
513.308	1.91815
516.201	1.7674
519.094	4.18759
521.987	2.62405
524.879	9.25259
527.772	6.57794
530.665	8.89746
533.557	10.2827
536.45	7.30936
539.343	7.99762
542.236	10.4034
545.128	10.0096
548.021	9.47855
550.914	10.4488
553.806	8.19684
556.699	8.98206
559.592	6.80127
562.484	6.18658
565.377	7.0798
568.27	4.4932
571.163	3.71646
574.055	6.71246
576.948	3.04504
579.841	3.71551
582.733	4.66321
585.626	0.693024
588.519	0.726929
591.411	2.30191
594.304	2.57153
597.197	2.98303
600.09	2.315
602.982	1.00656
605.875	1.38321
608.768	1.93195
611.66	1.93274
614.553	3.53931
617.446	3.01877
620.338	6.11859
623.231	7.69089
626.124	9.3931
629.016	12.9371
631.909	15.6433
634.802	21.8527
637.695	25.2794
640.587	28.0671
643.48	33.6594
646.373	36.3656
649.265	38.6333
652.158	41.0043
655.051	41.5446
657.943	45.9852
660.836	46.776
663.729	44.7935
666.622	41.4108
669.514	37.7552
672.407	36.6616
675.3	30.3653
678.192	27.3238
681.085	24.208
683.978	20.4159
686.87	14.1083
689.763	13.3585
692.656	9.12836
695.549	5.93811
698.441	4.78433
701.334	2.6536
704.227	0.759033
707.119	0.107758
710.012	1.20248
712.905	0.217773
715.798	1.35821
718.69	2.45398
721.583	2.91586
724.476	1.1745
727.368	2.19086
730.261	3.89533
733.154	4.13504
736.046	3.26282
738.939	5.3952
741.832	7.47147
744.725	6.75043
747.617	11.5604
750.51	11.3253
753.403	13.3172
756.295	15.767
759.188	14.1682
762.081	17.2223
764.973	16.9087
767.866	16.5269
770.759	17.7801
773.652	21.5347
776.544	19.3605
779.437	22.5784
782.33	19.9469
785.222	23.9301
788.115	22.2898
791.008	25.3276
793.9	24.5888
796.793	28.6501
799.686	27.92
802.578	24.7774
805.471	25.9372
808.364	28.0676
811.257	29.2864
814.149	28.4547
817.042	28.5403
819.935	26.9742
822.827	28.4127
825.72	26.5844
828.613	24.3691
831.505	26.4265
834.398	23.7079
837.291	25.0866
840.184	23.7194
843.076	22.5266
845.969	22.8358
848.862	19.0784
851.754	19.7961
854.647	18.6605
857.54	17.9172
860.433	18.3303
863.325	14.5946
866.218	13.513
869.111	11.1762
872.003	10.5687
874.896	11.5513
877.789	8.61267
880.681	5.99562
883.574	5.76317
886.467	6.78633
889.36	3.62567
892.252	1.69846
895.145	1.88747
898.038	1.21518
900.93	1.53949
903.823	0.86145
906.716	1.74512
909.608	0.121719
912.501	1.51552
915.394	0.175186
918.287	1.23254
921.179	0.05864
924.072	0.543045
926.965	1.12267
929.857	0.042267
932.75	0.006241
935.643	0.736725
938.535	0.136719
941.428	2.20717
944.321	1.20004
947.213	5.0074
950.106	3.33096
952.999	2.80026
955.892	5.49272
958.784	5.30263
961.677	4.64572
964.57	5.85736
967.462	4.86722
970.355	6.93959
973.248	5.88539
976.14	5.75056
979.033	6.77766
981.926	6.92467
984.819	7.46257
987.711	6.21562
990.604	5.38367
993.497	4.7421
996.389	5.29333
999.282	3.89957
1002.17	5.34988
1005.07	5.77103
1007.96	4.46568
1010.85	4.85086
1013.75	2.66392
1016.64	3.66098
1019.53	3.77995
1022.42	3.13425
1025.32	3.96841
1028.21	4.31694
1031.1	3.75316
1033.99	2.32077
1036.89	4.38937
1039.78	4.03696
1042.67	2.91142
1045.57	3.18303
1048.46	1.75732
1051.35	3.42331
1054.24	3.65476
1057.14	2.63911
1060.03	1.76717
1062.92	1.95798
1065.81	0.519775
1068.71	1.24219
1071.6	1.20837
1074.49	0.662918
1077.38	0.265579
1080.28	0.824951
1083.17	1.97978
1086.06	1.9632
1088.96	0.919327
1091.85	0.583633
1094.74	2.88333
1097.63	0.508102
1100.53	1.72607
1103.42	0.655624
1106.31	0.689163
1109.2	0.598267
1112.1	2.02913
1114.99	1.29234
1117.88	0.658264
1120.78	1.28067
1123.67	0.193863
1126.56	0.805054
1129.45	1.70894
1132.35	1.92055
1135.24	0.241623
1138.13	1.91421
1141.02	0.69545
1143.92	1.19385
1146.81	0.838638
1149.7	2.54147
1152.6	0.054077
1155.49	1.1441
1158.38	0.396561
1161.27	0.583099
1164.17	0.437119
1167.06	0.84964
1169.95	0.246048
1172.84	0.055313
1175.74	1.32118
1178.63	2.08717
1181.52	3.04239
1184.41	1.42062
1187.31	1.04382
1190.2	0.882065
1193.09	2.94192
1195.99	1.23396
1198.88	2.57407
1201.77	1.18842
1204.66	1.95196
1207.56	3.73071
1210.45	2.93239
1213.34	2.00577
1216.23	2.88768
1219.13	1.58708
1222.02	1.04977
1224.91	1.65369
1227.81	3.75792
1230.7	1.08978
1233.59	1.50005
1236.48	0.00235
1239.38	0.639603
1242.27	1.4729
1245.16	1.06087
1248.05	0.450912
1250.95	2.40233
1253.84	1.85905
1256.73	2.78644
1259.62	4.68721
1262.52	2.52048
1265.41	0.899536
1268.3	2.17509
1271.2	3.4779
1274.09	0.697388
1276.98	2.64131
1279.87	0.839966
1282.77	2.46797
1285.66	0.928726
1288.55	2.21169
1291.44	2.2005
1294.34	0.813782
1297.23	1.662
1300.12	2.45819
1303.02	0
