Measurement: Raman, 780 nm, unoriented, Raman Data Processed
Mineral: Niobophyllite
Rruff sample: R110048
Ideal chemistry: K_2_NaFe^2+^_7_(Nb^5+^,Ti^4+^)_2_(Si_4_O_12_)_2_O_2_(OH)_4_(O,F)
Locality: Mount Malosa, Zomba District, Malawi
Source: Donald M Doell
Description: Brown tabular platy crystals associated with quartz
Raman shift (cm-1)	intensity
192.848	0
195.741	0.264771
198.633	1.07752
201.526	1.14246
204.419	4.79248
207.311	10.5647
210.204	13.353
213.097	21.2822
215.99	30.1536
218.882	34.8986
221.775	42.9441
224.668	46.9172
227.56	47.5375
230.453	55.5326
233.346	57.678
236.238	62.1854
239.131	72.088
242.024	77.7904
244.917	83.4935
247.809	91.3352
250.702	99.9351
253.595	104.923
256.487	108.964
259.38	103.321
262.273	90.5359
265.166	68.0792
268.058	51.2581
270.951	31.9365
273.844	23.2866
276.736	15.1941
279.629	12.6484
282.522	10.667
285.414	6.08337
288.307	4.6698
291.2	7.77234
294.092	7.33191
296.985	5.25513
299.878	4.36853
302.771	0.517822
305.663	0.684082
308.556	1.15991
311.449	0.857422
314.341	1.65344
317.234	0.5625
320.127	1.30872
323.019	1.67883
325.912	0.188843
328.805	4.61267
331.698	4.87439
334.59	7.25061
337.483	16.8873
340.376	17.3601
343.269	18.818
346.161	21.0222
349.054	22.0198
351.947	20.8431
354.839	20.3541
357.732	20.3615
360.625	18.0906
363.517	20.6073
366.41	17.2384
369.303	18.6366
372.195	14.0416
375.088	12.1249
377.981	9.93555
380.874	12.9229
383.766	9.20276
386.659	13.2963
389.552	11.6981
392.444	12.212
395.337	13.9551
398.23	13.4141
401.123	14.2765
404.015	15.3871
406.908	18.6539
409.801	21.9383
412.693	18.8204
415.586	20.7305
418.479	18.766
421.371	23.013
424.264	21.5303
427.157	19.1663
430.05	17.7183
432.942	12.0155
435.835	6.90362
438.728	6.5484
441.62	2.33002
444.513	1.77393
447.406	0.901245
450.298	0.219788
453.191	0.388062
456.084	0.610779
458.976	2.59106
461.869	1.74792
464.762	4.39624
467.655	3.24383
470.547	4.74622
473.44	8.65485
476.333	8.16614
479.225	3.45898
482.118	4.6358
485.011	5.85181
487.904	2.52051
490.796	2.77051
493.689	3.69342
496.582	4.0365
499.474	2.1441
502.367	0.120117
505.26	2.21344
508.152	1.05627
511.045	2.62848
513.938	2.18365
516.83	0.692322
519.723	0.060669
522.616	0.295776
525.509	0.576294
528.401	0.568481
531.294	5.95294
534.187	4.67035
537.079	6.04047
539.972	10.7419
542.865	11.8226
545.757	16.8024
548.65	21.2386
551.543	25.3804
554.436	34.7126
557.328	35.6867
560.221	36.55
563.114	32.1879
566.006	30.9031
568.899	26.6655
571.792	20.62
574.684	14.8391
577.577	13.2165
580.47	9.93414
583.362	4.10956
586.255	4.61047
589.148	2.5094
592.041	1.34241
594.933	2.13013
597.826	3.49078
600.719	1.68524
603.611	1.13983
606.504	0.837341
609.397	1.52618
612.29	1.94507
615.182	0.856262
618.075	0.681335
620.968	0.673279
623.86	1.71539
626.753	4.7392
629.646	9.66571
632.538	11.6582
635.431	19.3049
638.324	24.2228
641.217	35.5203
644.109	41.6181
647.002	48.2936
649.895	53.4889
652.787	57.5487
655.68	60.1265
658.573	60.8581
661.466	58.8263
664.358	55.3268
667.251	49.1797
670.144	43.4121
673.036	48.0677
675.929	41.838
678.822	43.1451
681.714	45.0033
684.607	44.1039
687.5	47.4934
690.393	46.4183
693.285	46.181
696.178	45.0983
699.071	44.3718
701.963	43.8564
704.856	40.2645
707.749	39.8804
710.641	40.8952
713.534	35.6121
716.427	32.5669
719.319	28.6044
722.212	23.6089
725.105	21.7274
727.998	16.784
730.89	17.5273
733.783	11.007
736.676	11.4313
739.568	7.87122
742.461	4.41211
745.354	6.56689
748.246	6.23236
751.139	5.8551
754.032	3.48804
756.925	2.89984
759.817	2.5965
762.71	1.91443
765.603	0.741455
768.495	2.75079
771.388	0.362305
774.281	2.10107
777.173	1.57294
780.066	2.99249
782.959	2.5459
785.852	2.36694
788.744	0.73584
791.637	0.729736
794.53	3.25702
797.422	2.11011
800.315	0.69458
803.208	3.81781
806.101	0.743835
808.993	2.15686
811.886	3.25671
814.779	2.03876
817.671	1.85681
820.564	1.18127
823.457	0.089233
826.349	1.15155
829.242	0.57605
832.135	1.0943
835.028	0.350647
837.92	1.84827
840.813	2.31769
843.706	1.27832
846.598	0.957031
849.491	1.54157
852.384	1.72791
855.276	0.373779
858.169	1.89252
861.062	4.34766
863.955	4.98035
866.847	2.28326
869.74	2.9884
872.633	4.42072
875.525	10.1978
878.418	6.56995
881.311	6.93774
884.203	9.70203
887.096	12.7125
889.989	11.7685
892.881	17.7744
895.774	20.55
898.667	24.4311
901.56	29.3538
904.452	35.587
907.345	47.4062
910.238	52.2214
913.13	59.8554
916.023	64.0942
918.916	74.1492
921.808	79.3299
924.701	85.8149
927.594	90.5518
930.487	92.5797
933.379	96.7339
936.272	92.7343
939.165	88.1754
942.057	81.5779
944.95	69.3277
947.843	58.693
950.736	46.5308
953.628	35.0755
956.521	28.8331
959.414	23.7518
962.306	15.698
965.199	9.11664
968.092	9.50738
970.984	6.68793
973.877	0.669678
976.77	0.348083
979.663	1.30066
982.555	0.791382
985.448	0.839905
988.341	1.59778
991.233	1.78253
994.126	0.07312
997.019	0.064148
999.911	3.67059
1002.8	1.31415
1005.7	1.63696
1008.59	5.81482
1011.48	5.68018
1014.38	7.44824
1017.27	11.0385
1020.16	11.2007
1023.05	11.4427
1025.95	14.3652
1028.84	13.34
1031.73	15.439
1034.62	12.4416
1037.52	16.4826
1040.41	14.2054
1043.3	8.55719
1046.19	5.14929
1049.09	4.71881
1051.98	3.00372
1054.87	5.12115
1057.77	4.06238
1060.66	3.92487
1063.55	0.307007
1066.44	3.15576
1069.34	3.86822
1072.23	2.50055
1075.12	1.57532
1078.01	3.51373
1080.91	3.8822
1083.8	2.44098
1086.69	1.56342
1089.59	3.15723
1092.48	2.9726
1095.37	5.93268
1098.26	2.12079
1101.16	1.09692
1104.05	3.80627
1106.94	0.455566
1109.83	0.567444
1112.73	0.683716
1115.62	1.26086
1118.51	1.11981
1121.4	1.625
1124.3	3.18487
1127.19	0.47406
1130.08	2.21124
1132.98	2.01697
1135.87	0.534912
1138.76	2.8642
1141.65	1.84656
1144.55	1.11279
1147.44	4.46082
1150.33	3.95715
1153.22	3.79053
1156.12	2.57971
1159.01	3.1507
1161.9	1.83148
1164.8	2.83087
1167.69	4.73987
1170.58	1.84692
1173.47	5.14539
1176.37	3.50549
1179.26	4.91571
1182.15	5.28998
1185.04	3.11957
1187.94	3.40485
1190.83	4.19074
1193.72	3.9809
1196.62	4.82703
1199.51	4.60089
1202.4	5.68921
1205.29	3.31049
1208.19	2.86444
1211.08	2.79431
1213.97	3.13861
1216.86	5.56708
1219.76	3.12958
1222.65	2.20331
1225.54	2.92255
1228.43	1.22498
1231.33	1.89575
1234.22	3.36847
1237.11	6.3006
1240.01	0.383179
1242.9	0.778564
1245.79	0.594543
1248.68	0.057312
1251.58	0.948914
1254.47	0.591614
1257.36	0.593933
1260.26	7.37176
1263.15	3.14465
1266.04	1.53748
1268.93	4.77924
1271.83	1.43756
1274.72	1.40143
1277.61	4.65533
1280.5	0.039307
1283.4	3.35156
