Measurement: Raman, 532 nm, unoriented, Raman Data Processed
Mineral: Niobophyllite
Rruff sample: R110048
Ideal chemistry: K_2_NaFe^2+^_7_(Nb^5+^,Ti^4+^)_2_(Si_4_O_12_)_2_O_2_(OH)_4_(O,F)
Locality: Mount Malosa, Zomba District, Malawi
Source: Donald M Doell
Description: Brown tabular platy crystals associated with quartz
Raman shift (cm-1)	intensity
196.076	0
198.968	1.66319
201.861	1.92137
204.754	13.087
207.647	13.4638
210.539	30.3353
213.432	35.2749
216.325	43.7487
219.217	53.4216
222.11	63.6916
225.003	75.8695
227.895	72.1545
230.788	82.7615
233.681	79.2295
236.573	78.1574
239.466	73.5097
242.359	65.8021
245.252	57.5511
248.144	60.967
251.037	55.0305
253.93	54.0849
256.822	47.6529
259.715	50.406
262.608	45.6052
265.5	34.0272
268.393	24.5217
271.286	14.4385
274.179	7.32765
277.071	9.18187
279.964	5.47652
282.857	3.88512
285.75	8.31415
288.642	4.79817
291.535	1.69168
294.428	5.67798
297.32	4.2003
300.213	6.37839
303.106	7.83299
305.998	5.19307
308.891	0.380615
311.784	1.23775
314.676	2.88769
317.569	4.00871
320.462	0.928986
323.355	5.32623
326.247	0.623795
329.14	1.53401
332.033	3.35556
334.925	7.26593
337.818	7.77891
340.711	14.7257
343.603	15.7182
346.496	18.8515
349.389	20.1057
352.281	23.1121
355.174	24.4579
358.067	20.2608
360.96	21.0766
363.852	22.2416
366.745	22.7192
369.638	25.7692
372.53	22.5613
375.423	20.6584
378.316	14.0567
381.209	9.8264
384.101	15.3565
386.994	13.5138
389.887	10.8545
392.779	11.5646
395.672	10.1384
398.565	9.71345
401.457	11.7782
404.35	13.888
407.243	12.3016
410.135	12.1284
413.028	12.6529
415.921	14.5537
418.814	13.2788
421.706	10.7823
424.599	12.3296
427.492	13.2295
430.384	14.378
433.277	8.77421
436.17	4.08489
439.062	2.86639
441.955	0.573219
444.848	0.396233
447.741	0.457993
450.633	1.73126
453.526	0.551483
456.419	2.06261
459.311	5.51382
462.204	4.97178
465.097	2.30634
467.99	6.26461
470.882	5.13577
473.775	5.27842
476.668	9.14015
479.56	9.18247
482.453	8.8305
485.346	9.69463
488.238	8.19971
491.131	9.31206
494.024	11.0292
496.916	8.68132
499.809	12.5408
502.702	7.3194
505.595	10.3804
508.487	9.78238
511.38	9.16637
514.273	10.5015
517.165	6.86852
520.058	0.131104
522.951	1.85394
525.844	3.83959
528.736	4.67796
531.629	4.27739
534.522	5.74991
537.414	5.67841
540.307	7.12817
543.2	14.7265
546.092	16.7263
548.985	26.9806
551.878	37.4387
554.771	43.8417
557.663	48.9651
560.556	51.9052
563.449	49.9656
566.341	45.8941
569.234	39.0419
572.127	28.2269
575.019	19.996
577.912	17.2443
580.805	6.98808
583.697	6.9104
586.59	3.84895
589.483	2.79384
592.376	4.45149
595.268	2.52309
598.161	2.12022
601.054	0.504135
603.946	2.42311
606.839	2.54208
609.732	0.977661
612.625	0.194595
615.517	1.09921
618.41	2.33037
621.303	1.86357
624.195	2.87404
627.088	6.04688
629.981	11.9268
632.873	13.8597
635.766	24.4635
638.659	34.9284
641.552	49.6133
644.444	69.796
647.337	88.868
650.23	114.447
653.122	137.815
656.015	151.754
658.908	148.173
661.8	126.336
664.693	103.229
667.586	81.656
670.479	72.5863
673.371	71.2213
676.264	67.8794
679.157	72.7998
682.049	75.8785
684.942	78.832
687.835	79.3545
690.727	81.4497
693.62	78.3409
696.513	79.4008
699.405	75.3336
702.298	73.5909
705.191	71.6149
708.084	66.9084
710.976	65.9881
713.869	60.4251
716.762	56.0185
719.654	46.3376
722.547	42.9575
725.44	34.1643
728.332	27.8512
731.225	21.2176
734.118	13.9393
737.011	12.466
739.903	7.81334
742.796	1.65176
745.689	1.25461
748.581	1.31769
751.474	2.72292
754.367	0.023636
757.26	2.82124
760.152	1.11556
763.045	0.414612
765.938	2.91495
768.83	4.78494
771.723	0.385101
774.616	3.01743
777.508	4.89238
780.401	6.00228
783.294	1.39068
786.187	6.20602
789.079	3.68941
791.972	3.56753
794.865	6.14803
797.757	0.754105
800.65	0.285538
803.543	2.32694
806.435	0.065575
809.328	0.511009
812.221	2.33054
815.114	1.17942
818.006	1.05339
820.899	2.9492
823.792	3.7446
826.684	0.016693
829.577	2.20628
832.47	0.276962
835.362	3.23586
838.255	0.211266
841.148	3.00886
844.04	0.091164
846.933	1.59261
849.826	1.03841
852.719	3.66842
855.611	2.10874
858.504	2.72615
861.397	5.35094
864.289	4.43453
867.182	4.96559
870.075	5.13957
872.967	7.04905
875.86	11.7687
878.753	6.33781
881.646	10.2912
884.538	12.1035
887.431	12.6802
890.324	16.7128
893.216	20.5814
896.109	22.805
899.002	23.8718
901.894	32.8735
904.787	40.0222
907.68	44.5932
910.573	52.4219
913.465	59.0966
916.358	67.8881
919.251	74.3106
922.143	83.9402
925.036	88.1327
927.929	96.4191
930.822	97.5756
933.714	102.097
936.607	101.786
939.5	99.105
942.392	91.8254
945.285	77.8502
948.178	66.2975
951.07	52.2749
953.963	42.0193
956.856	31.012
959.749	24.1626
962.641	16.7983
965.534	12.7745
968.427	8.14523
971.319	4.77799
974.212	0.688301
977.105	1.56602
979.997	0.014107
982.89	0.432343
985.783	1.24043
988.676	2.66231
991.568	0.852768
994.461	3.67596
997.354	2.14075
1000.25	2.70378
1003.14	5.66821
1006.03	8.52898
1008.92	14.0203
1011.82	19.3998
1014.71	25.0909
1017.6	34.1837
1020.5	40.6264
1023.39	47.5593
1026.28	53.3464
1029.17	59.4918
1032.07	60.1512
1034.96	63.6865
1037.85	54.0225
1040.74	50.087
1043.64	44.1017
1046.53	35.0386
1049.42	27.5965
1052.32	21.9669
1055.21	15.6126
1058.1	12.7513
1060.99	6.72038
1063.89	8.68218
1066.78	4.00819
1069.67	3.83488
1072.56	4.47032
1075.46	1.54581
1078.35	2.69834
1081.24	4.07605
1084.13	4.39895
1087.03	5.43969
1089.92	1.86707
1092.81	3.82307
1095.7	4.44701
1098.6	4.3539
1101.49	4.47527
1104.38	3.95914
1107.28	1.76738
1110.17	2.77936
1113.06	2.67853
1115.95	2.84937
1118.85	1.2325
1121.74	0.324799
1124.63	0.787376
1127.53	1.31017
1130.42	2.13467
1133.31	0.373039
1136.2	2.68523
1139.1	0.584679
1141.99	0.783981
1144.88	0.157761
1147.77	0.637596
1150.67	0.197266
1153.56	0.775024
1156.45	1.7204
1159.35	0.11689
1162.24	4.82915
1165.13	3.84623
1168.02	1.22033
1170.92	1.91482
1173.81	1.22458
1176.7	3.81111
1179.59	3.66491
1182.49	4.3848
1185.38	2.79651
1188.27	1.03267
1191.16	5.46525
1194.06	2.7239
1196.95	1.64899
1199.84	4.0784
1202.73	3.35767
1205.63	2.38915
1208.52	3.81068
1211.41	1.56803
1214.31	3.16502
1217.2	3.88799
1220.09	1.81675
1222.98	1.18696
1225.88	2.9486
1228.77	2.05817
1231.66	0.8283
1234.56	2.96506
1237.45	2.11254
1240.34	1.81827
1243.23	4.22436
1246.13	3.93024
1249.02	0.157448
1251.91	3.68941
1254.8	1.86427
1257.7	3.25793
1260.59	1.03782
1263.48	0.01284
1266.38	1.22561
1269.27	2.8248
1272.16	1.29782
1275.05	1.4971
1277.95	1.6181
1280.84	3.38757
1283.73	0.936852
1286.62	0.808891
1289.52	2.12075
1292.41	3.55068
1295.3	4.13599
1298.19	3.20342
1301.09	0.595467
