Measurement: Raman, 532 nm, unoriented, Raman Data Processed
Mineral: Nuffieldite
Rruff sample: R100113
Ideal chemistry: Pb^2+^_2_Cu^1+^_1.4_(Pb^2+^_0.4_Bi^3+^_0.4_Sb^3+^_0.2_)Bi^3+^_2_S^2-^_7_
Locality: British Columbia Molybdenum mine, Kitsault, British Columbia, Canada
Source: Robert Woodside
Description: Steel-gray striated prismatic crystals in quartz
Measured chemistry: Pb_2.00_(Cu_1.22_Sb_0.06_)_Σ=1.28_(Bi_0.71_Pb_0.23_Sb_0.06_)_Σ=1.00_Bi_2.00_S_7_ (Light phases are galena)
Raman shift (cm-1)	intensity
124.252	0
127.627	12.9185
131.002	1.95715
134.376	3.80189
137.751	1.52911
141.126	13.1363
144.501	24.6079
147.876	20.0593
151.251	42.8284
154.625	34.4936
158	51.2403
161.375	69.2936
164.75	58.5306
168.125	58.672
171.5	31.1283
174.874	42.3752
178.249	37.0688
181.624	39.7568
184.999	27.2045
188.374	28.276
191.749	21.5315
195.123	21.4657
198.498	28.4645
201.873	17.7227
205.248	9.6919
208.623	7.41007
211.997	13.7521
215.372	14.8127
218.747	20.4925
222.122	20.0043
225.497	14.5928
228.871	15.8009
232.246	23.6555
235.621	5.14095
238.996	10.3124
242.371	3.11362
245.746	7.46266
249.12	11.932
252.495	20.9615
255.87	31.0977
259.245	32.0943
262.62	43.8359
265.995	43.4567
269.369	69.7931
272.744	71.9281
276.119	76.736
279.494	73.6294
282.869	61.6451
286.243	40.0431
289.618	34.618
292.993	19.7709
296.368	4.75756
299.743	3.1451
303.118	3.41012
306.492	7.18826
309.867	0.593182
313.242	0.496075
316.617	3.73811
319.992	8.55642
323.366	5.46692
326.741	4.77964
330.116	2.43536
333.491	2.85505
336.866	4.00647
340.241	6.24133
343.615	15.6418
346.99	4.78075
350.365	16.1814
353.74	10.8729
357.115	14.5186
360.49	4.75981
363.864	13.3824
367.239	7.87925
370.614	13.5328
373.989	3.06584
377.364	5.41598
380.738	13.6334
384.113	5.64843
387.488	14.7142
390.863	6.67516
394.238	11.6703
397.613	16.6484
400.987	6.61043
404.362	10.1921
407.737	10.6661
411.112	6.62301
414.487	4.34251
417.861	5.48798
421.236	8.64575
424.611	5.70302
427.986	3.68101
431.361	0.547771
434.736	17.1124
438.11	4.37263
441.485	5.5688
444.86	8.96374
448.235	6.84823
451.61	1.56341
454.985	5.09862
458.359	3.36025
461.734	5.97047
465.109	4.792
468.484	8.26931
471.859	8.45405
475.233	3.93098
478.608	8.80574
481.983	3.73144
485.358	1.35483
488.733	3.10237
492.108	8.04893
495.482	4.7306
498.857	5.44259
502.232	5.75699
505.607	3.8456
508.982	9.49793
512.356	0.145399
515.731	8.63431
519.106	5.25437
522.481	5.20773
525.856	4.94252
529.231	1.12468
532.605	8.63688
535.98	3.62759
539.355	7.71965
542.73	5.27326
546.105	9.47256
549.479	7.42941
552.854	7.86717
556.229	3.58156
559.604	9.35884
562.979	3.14273
566.354	11.2093
569.728	7.03729
573.103	0.825281
576.478	5.71524
579.853	3.05049
583.228	6.20897
586.602	4.68361
589.977	6.40099
593.352	4.55737
596.727	1.60289
600.102	13.2231
603.477	1.88552
606.851	5.66315
610.226	3.74413
613.601	5.5514
616.976	9.26213
620.351	0.312981
623.726	3.30477
627.1	6.94539
630.475	5.771
633.85	14.644
637.225	7.11643
640.6	2.65316
643.974	8.25195
647.349	5.1054
650.724	6.6127
654.099	6.71409
657.474	8.02164
660.848	11.7946
664.223	2.51275
667.598	7.29532
670.973	7.69027
674.348	3.12565
677.723	7.56393
681.097	8.28002
684.472	6.66051
687.847	2.83982
691.222	4.73455
694.597	6.95038
697.972	6.26982
701.346	6.81921
704.721	7.21833
708.096	2.20003
711.471	0.722626
714.846	7.25098
718.221	5.37802
721.595	4.13811
724.97	8.35093
728.345	6.28358
731.72	4.99359
735.095	9.85498
738.469	8.84905
741.844	3.08658
745.219	1.75674
748.594	4.73858
751.969	9.3956
755.343	11.202
758.718	9.5761
762.093	10.4059
765.468	3.73325
768.843	3.74208
772.218	3.87256
775.592	7.62283
778.967	5.1491
782.342	3.10236
785.717	3.73798
789.092	8.46936
792.466	10.6085
795.841	2.66312
799.216	5.05986
802.591	0.428427
805.966	4.12674
809.341	2.25277
812.716	6.96492
816.09	5.01225
819.465	5.5932
822.84	3.87374
826.215	2.35289
829.59	7.08749
832.964	3.24344
836.339	3.24411
839.714	7.4852
843.089	4.49278
846.464	13.145
849.838	8.71367
853.213	9.84819
856.588	7.84235
859.963	9.76031
863.338	11.4494
866.712	13.1084
870.087	0.245872
873.462	5.66998
876.837	2.80302
880.212	2.99225
883.587	5.36838
886.962	14.1329
890.336	7.51449
893.711	1.45752
897.086	6.30134
900.461	1.39883
903.836	6.48617
907.21	9.17265
910.585	4.68767
913.96	9.72325
917.335	3.42217
920.71	4.2729
924.085	10.0824
927.459	13.0464
930.834	8.6236
934.209	2.6508
937.584	4.30528
940.959	8.8163
944.333	3.82895
947.708	0.80497
951.083	5.6459
954.458	6.95507
957.833	4.0147
961.207	6.24926
964.582	0.58981
967.957	7.42094
971.332	7.24447
974.707	1.80034
978.082	1.43217
981.456	6.24467
984.831	2.53431
988.206	5.56658
991.581	5.53566
994.956	5.65422
998.331	8.66889
1001.71	5.33397
1005.08	7.50895
1008.46	5.86752
1011.83	6.96956
1015.21	7.3731
1018.58	8.7727
1021.95	4.08139
1025.33	5.33922
1028.7	6.56837
1032.08	9.73575
1035.45	2.36361
1038.83	9.57931
1042.2	5.47245
1045.58	5.16468
1048.95	4.60435
1052.33	7.21328
1055.7	3.26037
1059.08	4.84174
1062.45	4.2569
1065.83	5.7443
1069.2	8.93171
1072.58	2.39108
1075.95	3.22864
1079.33	6.31487
1082.7	9.90203
1086.08	5.08199
1089.45	10.4119
1092.83	12.0008
1096.2	2.73229
1099.58	9.06815
1102.95	3.89051
1106.33	2.11905
1109.7	3.96572
1113.07	2.02595
1116.45	9.05661
1119.82	6.81744
1123.2	7.80459
1126.57	3.53187
1129.95	5.64887
1133.32	3.30606
1136.7	10.4784
1140.07	0.032038
1143.45	9.89897
1146.82	6.03939
1150.2	7.74742
1153.57	8.95605
1156.95	6.68555
1160.32	5.25178
1163.7	10.4723
1167.07	8.79134
1170.45	5.18574
1173.82	6.44945
1177.2	5.99304
1180.57	6.4784
1183.95	4.55314
1187.32	9.28959
1190.69	6.40647
1194.07	13.7488
1197.44	12.1507
1200.82	4.69821
1204.19	12.857
1207.57	3.27257
1210.94	7.95252
1214.32	8.47137
1217.69	6.00633
1221.07	14.1969
1224.44	5.19182
1227.82	5.3788
1231.19	5.70625
1234.57	0.317286
1237.94	8.34447
1241.32	9.54919
1244.69	2.76355
1248.07	5.61158
1251.44	0.869559
1254.82	9.69368
1258.19	2.61377
1261.57	3.96558
1264.94	0.407276
1268.32	0.112298
1271.69	2.63585
1275.07	7.64656
1278.44	5.21185
1281.82	2.16673
1285.19	4.54204
1288.57	5.2756
1291.94	0.095381
1295.32	1.47687
