Measurement: Raman, 780 nm, unoriented, Raman Data Processed
Mineral: Obradovicite-KCu
Rruff sample: R110015
Ideal chemistry: [K_2_(H_2_O)_17_Cu^2+^(H_2_O)_6_][Mo^6+^_8_As^5+^_2_Fe^3+^_3_O_34_(OH)_3_]
Locality: Chuquicamata, Chile
Source: William W Pinch
Description: Fine grained lime green coating on quartz
Raman shift (cm-1)	intensity
174.012	0
176.904	0.063597
179.797	0.194981
182.69	1.27161
185.582	1.66306
188.475	3.11842
191.368	1.64132
194.261	6.34409
197.153	4.30946
200.046	9.45203
202.939	10.5806
205.831	14.8628
208.724	16.2093
211.617	23.6125
214.509	20.4902
217.402	25.9272
220.295	26.1847
223.188	26.5356
226.08	21.1842
228.973	20.3905
231.866	17.626
234.758	16.3103
237.651	15.5609
240.544	14.0402
243.436	12.3359
246.329	10.3408
249.222	14.2296
252.114	11.6613
255.007	12.0438
257.9	10.7107
260.793	10.3584
263.685	10.7775
266.578	13.6149
269.471	8.2089
272.363	10.7108
275.256	8.4175
278.149	11.2858
281.041	9.59317
283.934	11.2833
286.827	10.7919
289.719	7.53024
292.612	5.89533
295.505	6.17201
298.398	1.54657
301.29	1.46846
304.183	0.318621
307.076	0.390942
309.968	1.44528
312.861	2.67544
315.754	0.763023
318.647	0.775099
321.539	1.16914
324.432	4.26932
327.325	2.72096
330.217	1.75602
333.11	5.16189
336.003	5.55787
338.895	4.94328
341.788	5.51633
344.681	9.32203
347.574	9.6274
350.466	11.0649
353.359	9.06529
356.252	7.73276
359.144	9.91225
362.037	10.083
364.93	7.76753
367.822	2.4097
370.715	3.57026
373.608	1.07558
376.5	0.64526
379.393	2.18205
382.286	1.13046
385.179	0.709232
388.071	1.76816
390.964	5.25885
393.857	6.68987
396.749	3.32781
399.642	9.2819
402.535	5.60054
405.427	6.83982
408.32	6.16275
411.213	6.88534
414.106	7.99092
416.998	6.17488
419.891	5.04889
422.784	6.83661
425.676	5.70735
428.569	6.89227
431.462	6.69599
434.354	6.37892
437.247	5.19526
440.14	4.67841
443.033	6.30448
445.925	0.591532
448.818	0.148937
451.711	0.012774
454.603	0.223421
457.496	2.32142
460.389	0.229242
463.281	4.06446
466.174	3.8112
469.067	4.22969
471.959	5.05263
474.852	4.86277
477.745	5.79979
480.638	3.50816
483.53	7.0055
486.423	7.71576
489.316	6.83975
492.208	4.24417
495.101	4.33949
497.994	2.03477
500.887	0.691807
503.779	5.03085
506.672	5.43784
509.565	1.36028
512.457	4.58628
515.35	2.40865
518.243	0.378011
521.135	0.923963
524.028	2.50954
526.921	0.84293
529.813	3.10382
532.706	0.230205
535.599	2.70594
538.492	1.05159
541.384	1.77004
544.277	0.238974
547.17	0.490314
550.062	3.05683
552.955	4.2591
555.848	1.51598
558.74	2.77843
561.633	2.89469
564.526	3.36913
567.418	3.07062
570.311	3.24067
573.204	4.67145
576.097	8.78381
578.989	3.51599
581.882	3.09798
584.775	5.41193
587.667	5.07501
590.56	3.57198
593.453	4.9763
596.346	2.41127
599.238	3.31795
602.131	3.46703
605.024	1.7336
607.916	0.859141
610.809	3.45956
613.702	0.967156
616.594	1.73502
619.487	0.379671
622.38	0.763267
625.273	0.481394
628.165	1.90864
631.058	1.06549
633.951	1.86137
636.843	2.28475
639.736	0.420965
642.629	4.14491
645.521	2.46441
648.414	0.681469
651.307	0.128522
654.199	3.68977
657.092	3.35738
659.985	0.71725
662.878	3.49284
665.77	3.87282
668.663	2.77528
671.556	5.6338
674.448	8.20785
677.341	6.93971
680.234	10.8815
683.126	8.56113
686.019	10.7056
688.912	9.2407
691.805	11.1148
694.697	7.96851
697.59	8.1348
700.483	7.19732
703.375	4.72734
706.268	5.67859
709.161	4.8834
712.053	4.85186
714.946	1.33457
717.839	4.04874
720.731	1.86642
723.624	1.25968
726.517	2.08935
729.41	0.002529
732.302	2.77023
735.195	3.28193
738.088	4.29397
740.98	1.05475
743.873	2.73091
746.766	4.06763
749.659	2.30213
752.551	3.33885
755.444	1.53479
758.337	2.749
761.229	0.18622
764.122	1.5986
767.015	1.92679
769.907	0.746296
772.8	1.34839
775.693	4.13453
778.586	2.58364
781.478	2.83194
784.371	3.27509
787.264	2.75548
790.156	4.24373
793.049	0.315117
795.942	4.02637
798.834	1.32246
801.727	5.05971
804.62	8.98907
807.513	6.91824
810.405	9.78689
813.298	8.2496
816.191	9.23587
819.083	9.87375
821.976	8.43299
824.869	10.7102
827.761	12.5985
830.654	8.66797
833.547	4.2838
836.439	4.92393
839.332	2.96746
842.225	1.79326
845.118	0.919742
848.01	1.66082
850.903	0.061059
853.796	1.84951
856.688	0.043192
859.581	0.696011
862.474	2.5774
865.366	3.6523
868.259	1.70181
871.152	5.95224
874.044	4.25032
876.937	2.62918
879.83	4.21531
882.723	9.01534
885.615	8.58484
888.508	7.61881
891.401	8.53017
894.293	14.9014
897.186	14.8188
900.079	15.7657
902.971	19.9366
905.864	23.7886
908.757	26.5872
911.65	27.2335
914.542	27.7626
917.435	32.1224
920.328	32.7342
923.22	28.586
926.113	30.0921
929.006	27.1438
931.899	30.1752
934.791	24.067
937.684	25.0485
940.577	27.6805
943.469	30.3088
946.362	34.597
949.255	42.2497
952.147	45.6633
955.04	48.345
957.933	48.2244
960.825	44.17
963.718	34.5721
966.611	18.7868
969.504	13.597
972.396	4.98235
975.289	1.53628
978.182	1.90288
981.074	1.22098
983.967	0.242435
986.86	3.21822
989.752	1.49859
992.645	4.91536
995.538	0.080948
998.431	1.76517
1001.32	0.077646
1004.22	0.196369
1007.11	2.58264
1010	1.51859
1012.89	1.05568
1015.79	0.994079
1018.68	3.41348
1021.57	3.63495
1024.46	0.190801
1027.36	4.37282
1030.25	4.53814
1033.14	2.77485
1036.04	3.36423
1038.93	0.486247
1041.82	2.31629
1044.71	1.62507
1047.61	3.29011
1050.5	1.98537
1053.39	4.115
1056.29	0.482492
1059.18	1.31858
1062.07	4.51769
1064.96	0.829145
1067.86	4.85533
1070.75	0.880476
1073.64	3.51608
1076.53	4.93326
1079.43	2.9493
1082.32	4.6572
1085.21	1.63008
1088.1	3.79986
1091	1.57939
1093.89	6.19351
1096.78	3.91093
1099.67	4.2732
1102.57	2.14417
1105.46	5.14174
1108.35	6.9778
1111.25	0.481397
1114.14	0.141632
1117.03	0.916797
1119.92	5.36687
1122.82	3.19601
1125.71	3.43195
1128.6	4.13645
1131.49	3.59139
1134.39	4.33368
1137.28	2.65212
1140.17	3.61516
1143.07	4.04839
1145.96	3.32869
1148.85	5.0492
1151.74	3.11658
1154.64	0.57977
1157.53	1.15735
1160.42	5.41185
1163.31	3.06841
1166.21	3.85679
1169.1	4.14469
1171.99	5.11486
1174.88	2.9614
1177.78	4.70648
1180.67	5.43726
1183.56	2.0112
1186.46	3.0332
1189.35	1.13383
1192.24	0.711844
1195.13	2.88923
1198.03	3.75961
1200.92	2.76059
1203.81	2.08227
1206.7	3.24358
1209.6	2.52479
1212.49	1.70336
1215.38	2.29427
1218.28	4.84736
1221.17	3.08722
1224.06	1.25328
1226.95	0.743806
1229.85	4.50797
1232.74	1.08475
1235.63	4.85697
1238.53	2.35281
1241.42	2.57378
1244.31	4.53644
1247.2	3.04169
1250.1	0.4038
1252.99	4.25414
1255.88	2.72048
1258.77	0.557941
1261.67	5.34437
1264.56	2.37817
1267.45	0.377215
1270.34	2.41308
1273.24	2.16686
1276.13	1.55872
1279.02	2.99045
1281.91	0.067549
1284.81	0
