Measurement: Raman, 785 nm, unoriented, Raman Data Processed
Mineral: Olenite
Rruff sample: R061133
Ideal chemistry: NaAl_3_Al_6_(Si_6_O_18_)(BO_3_)_3_(O_3_)OH
Locality: Uvil'dy, Urals, Siberia, Russia
Source: Michael Scott
Description: Blue-gray grains
Raman shift (cm-1)	intensity
113.596	0
116.489	129.641
119.382	63.3184
122.274	39.2944
125.167	24.5245
128.06	158.735
130.952	155.494
133.845	55.551
136.738	115.18
139.63	580.957
142.523	1224.57
145.416	1855.82
148.309	2132.19
151.201	2099.36
154.094	1992.93
156.987	1976.03
159.879	2107.12
162.772	2343.15
165.665	2532.73
168.557	2661.09
171.45	2596.94
174.343	2495.12
177.236	2435.04
180.128	2399.98
183.021	2319.98
185.914	2309.7
188.806	2144.27
191.699	2090.36
194.592	2018.83
197.484	1956.16
200.377	1893.17
203.27	1838.69
206.162	1698.42
209.055	1593.85
211.948	1670.91
214.841	1769.88
217.733	1885.15
220.626	2007.18
223.519	2228.5
226.411	2174.44
229.304	1985.99
232.197	1653.25
235.089	1369.33
237.982	1118.42
240.875	933.631
243.768	832.557
246.66	671.625
249.553	604.768
252.446	600.708
255.338	595.343
258.231	681.115
261.124	776.739
264.017	887.107
266.909	858.83
269.802	827.173
272.695	642.885
275.587	449.443
278.48	330.74
281.373	218.821
284.265	117.186
287.158	96.0059
290.051	2.14258
292.943	9.03125
295.836	16.7412
298.729	18.1318
301.622	84.7568
304.514	17.8779
307.407	5.13965
310.3	9.26074
313.192	62.3164
316.085	48.5107
318.978	48.0381
321.87	37.7793
324.763	85.6689
327.656	58.6875
330.549	5.26465
333.441	66.6016
336.334	37.5918
339.227	7.39648
342.119	49.79
345.012	121.513
347.905	142.904
350.798	243.81
353.69	327.062
356.583	501.246
359.476	667.455
362.368	826.878
365.261	1023.95
368.154	1349.72
371.046	1628.82
373.939	1632.4
376.832	1398.96
379.724	1105.05
382.617	810.622
385.51	642.03
388.403	487.565
391.295	477.688
394.188	422.488
397.081	376.79
399.973	400.483
402.866	310.204
405.759	261.71
408.651	215.79
411.544	241.153
414.437	170.616
417.329	114.456
420.222	58.6094
423.115	79.2402
426.008	29.5674
428.9	25.0439
431.793	26.1055
434.686	61.0889
437.578	135.064
440.471	125.04
443.364	76.7705
446.257	102.739
449.149	106.549
452.042	68.4297
454.935	73.0215
457.827	58.8096
460.72	4.67773
463.613	50.5293
466.505	52.3965
469.398	61.4824
472.291	8.27441
475.183	31.9395
478.076	39.123
480.969	61.334
483.862	52.3682
486.754	79.9014
489.647	30.8184
492.54	113.998
495.432	88.916
498.325	49.792
501.218	125.017
504.111	166.036
507.003	217.918
509.896	254.99
512.789	297.852
515.681	426.58
518.574	379.289
521.467	376.211
524.359	251.718
527.252	265.24
530.145	236.602
533.038	194.438
535.93	240.589
538.823	177.523
541.716	206.987
544.608	184.763
547.501	154.079
550.394	159.944
553.286	53.4883
556.179	88.9062
559.072	130.644
561.965	50.1797
564.857	2.05859
567.75	15.1895
570.643	73.6318
573.535	54.2793
576.428	49.9141
579.321	21.0781
582.213	74.5625
585.106	26.8867
587.999	9.90137
590.891	55.0322
593.784	11.125
596.677	9.7041
599.57	21.8994
602.462	89.416
605.355	6.11523
608.248	11.5117
611.14	18.5654
614.033	49.7197
616.926	59.5059
619.818	104.361
622.711	43.0283
625.604	13.5215
628.497	58.6592
631.389	1.08643
634.282	54.1392
637.175	4.82617
640.067	33.4233
642.96	48.1397
645.853	65.7124
648.745	39.2261
651.638	45.3105
654.531	35.8657
657.424	48.7925
660.316	70.458
663.209	93.4033
666.102	59.5415
668.994	57.0122
671.887	61.1401
674.78	46.2158
677.673	45.7832
680.565	70.1382
683.458	22.2754
686.351	11.9175
689.243	20.6685
692.136	60.0278
695.029	150.242
697.921	145.606
700.814	233.09
703.707	374.913
706.6	440.966
709.492	553.536
712.385	668.711
715.278	689.128
718.17	587.775
721.063	636.514
723.956	484.729
726.848	406.072
729.741	287.546
732.634	228.68
735.527	163.836
738.419	172.683
741.312	181.045
744.205	235.816
747.097	175.322
749.99	203.002
752.883	210.117
755.775	94.396
758.668	56.3037
761.561	73.0083
764.453	20.7085
767.346	49.3023
770.239	31.209
773.131	71.2148
776.024	53.8691
778.917	64.8618
781.81	59.4473
784.702	19.6201
787.595	54.7695
790.488	33.835
793.38	21.8745
796.273	12.8369
799.166	31.6372
802.058	33.523
804.951	18.1621
807.844	65.061
810.737	25.8975
813.629	30.1704
816.522	84.644
819.415	67.5713
822.307	24.4131
825.2	44.436
828.093	96.9785
830.986	100.17
833.878	5.63965
836.771	89.8726
839.664	86.0469
842.556	64.9722
845.449	53.2446
848.342	13.9194
851.234	81.4868
854.127	71.4072
857.02	69.5244
859.913	108.109
862.805	24.0391
865.698	83.7188
868.591	67.4126
871.483	145.127
874.376	28.707
877.269	78.0425
880.161	15.3804
883.054	54.0312
885.947	96.2563
888.84	56.2222
891.732	2.7456
894.625	2.91406
897.518	59.7075
900.41	50.1694
903.303	37.4575
906.196	8.5166
909.088	3.10107
911.981	28.2119
914.874	10.1025
917.766	47.6748
920.659	43.7456
923.552	12.2983
926.445	24.4712
929.337	16.6714
932.23	39.2285
935.123	29.083
938.015	6.31006
940.908	7.19482
943.801	25.9028
946.693	48.3262
949.586	38.6909
952.479	14.1411
955.372	60.8887
958.264	62.5977
961.157	13.0854
964.05	90.9424
966.942	21.7852
969.835	25.208
972.728	54.6079
975.62	64.8037
978.513	79.291
981.406	46.541
984.299	41.0752
987.191	52.1587
990.084	81.8687
992.977	29.541
995.869	67.4292
998.762	39.3638
1001.65	33.8984
1004.55	45.3008
1007.44	5.18896
1010.33	30.4092
1013.23	36.5986
1016.12	11.0425
1019.01	58.5601
1021.9	12.3545
1024.8	36.0928
1027.69	13.7261
1030.58	62.7666
1033.47	10.3843
1036.37	53.9937
1039.26	34.603
1042.15	70.3608
1045.05	84.375
1047.94	153.512
1050.83	173.934
1053.72	282.356
1056.62	306.488
1059.51	347.246
1062.4	303.375
1065.29	335.678
1068.19	320.128
1071.08	258.512
1073.97	261.229
1076.87	206.351
1079.76	182.16
1082.65	139.055
1085.54	179.43
1088.44	138.848
1091.33	134.836
1094.22	167.155
1097.11	157.923
1100.01	141.162
1102.9	98.0469
1105.79	176.123
1108.68	153.941
1111.58	183.494
1114.47	152.612
1117.36	179.672
1120.26	198.267
1123.15	221.492
1126.04	203.189
1128.93	225.834
1131.83	217.384
1134.72	233.751
1137.61	224.408
1140.5	181.774
1143.4	218.312
1146.29	125.482
1149.18	117.594
1152.08	93.4746
1154.97	100.206
1157.86	68.2534
1160.75	72.0938
1163.65	19.2573
1166.54	25.0903
1169.43	19.939
1172.32	14.0327
1175.22	21.981
1178.11	10.3369
1181	5.04492
1183.89	10.3604
1186.79	28.8691
1189.68	48.7402
1192.57	11.311
1195.47	60.4805
1198.36	24.7231
1201.25	62.0332
1204.14	71.3408
1207.04	135.757
1209.93	133.932
1212.82	133.268
1215.71	181.015
1218.61	184.154
1221.5	203.629
1224.39	197.583
1227.29	220.944
1230.18	237.625
1233.07	136.915
1235.96	150.689
1238.86	76.7012
1241.75	25.7007
1244.64	0
