Measurement: Raman, 780 nm, unoriented, Raman Data Processed
Mineral: Omphacite
Rruff sample: R110038
Ideal chemistry: (Ca,Na)(Mg,Fe^2+^,Al)Si_2_O_6_
Locality: Kefalos Hill, Skotini Bay, Galissas, Syros Island, Aegean Sea, Greece
Source: William W Pinch
Description: Pale green granular crystals associated with fluor-dravite R110031
Raman shift (cm-1)	intensity
180.313	0
183.206	7.63916
186.098	49.9121
188.991	104.233
191.884	136.934
194.776	116.951
197.669	101.621
200.562	110.201
203.455	137.26
206.347	158.714
209.24	168.452
212.133	193.657
215.025	180.062
217.918	152.695
220.811	96.6108
223.703	70.8857
226.596	30.4014
229.489	36.1948
232.382	37.7056
235.274	22.2207
238.167	9.74902
241.06	1.83398
243.952	6.0293
246.845	1.99805
249.738	7.42529
252.631	33.6709
255.523	14.207
258.416	6.30615
261.309	20.6616
264.201	41.4541
267.094	39.085
269.987	56.8872
272.879	29.48
275.772	36.939
278.665	35.9219
281.558	5.78271
284.45	32.312
287.343	38.023
290.236	52.019
293.128	49.019
296.021	55.4507
298.914	55.6211
301.806	52.624
304.699	69.9824
307.592	96.1792
310.485	99.8354
313.377	131.035
316.27	153.868
319.163	218.94
322.055	241.393
324.948	252.096
327.841	288.1
330.733	321.623
333.626	347.891
336.519	387.512
339.411	361.172
342.304	358.611
345.197	328.694
348.09	359.767
350.982	351.591
353.875	321.25
356.768	337.045
359.66	318.671
362.553	313.133
365.446	331.856
368.339	356.842
371.231	375.022
374.124	375.776
377.017	367.5
379.909	361.497
382.802	351.223
385.695	330.003
388.587	311.615
391.48	275.691
394.373	272.277
397.265	239.842
400.158	241.284
403.051	234.416
405.944	242.275
408.836	207.196
411.729	201.976
414.622	181.369
417.514	123.771
420.407	85.8687
423.3	44.9507
426.192	22.9473
429.085	1.75561
431.978	11.1257
434.871	6.93506
437.763	11.4224
440.656	22.199
443.549	7.74439
446.441	2.88867
449.334	6.25049
452.227	8.64062
455.12	21.7158
458.012	1.13818
460.905	19.115
463.798	33.1387
466.69	19.1514
469.583	40.3835
472.476	43.8989
475.368	77.3084
478.261	69.3059
481.154	64.3884
484.046	98.6816
486.939	99.4456
489.832	102.761
492.725	118.668
495.617	140.003
498.51	161.982
501.403	147.457
504.295	159.196
507.188	169.199
510.081	193.786
512.973	217.567
515.866	214.112
518.759	184.474
521.652	179.821
524.544	203.892
527.437	210.157
530.33	226.577
533.222	251.62
536.115	283.218
539.008	280.373
541.9	317.501
544.793	330.19
547.686	332.446
550.579	336.698
553.471	348.352
556.364	353.766
559.257	340.04
562.149	303.948
565.042	276.578
567.935	252.142
570.827	214.812
573.72	187.143
576.613	167.169
579.506	136.718
582.398	131.47
585.291	131.729
588.184	120.937
591.076	97.2041
593.969	94.2378
596.862	65.9536
599.755	57.7786
602.647	52.7581
605.54	26.6106
608.433	11.9993
611.325	5.47607
614.218	14.7581
617.111	1.53857
620.003	4.94067
622.896	8.28467
625.789	3.79736
628.682	8.18872
631.574	1.00147
634.467	6.4231
637.36	19.2061
640.252	23.1543
643.145	10.1763
646.038	18.1506
648.93	13.8604
651.823	17.1914
654.716	19.2329
657.609	36.5835
660.501	68.6238
663.394	113.346
666.287	195.728
669.179	299.155
672.072	458.902
674.965	644.583
677.857	855.456
680.75	989.662
683.643	839.644
686.535	609.302
689.428	402.589
692.321	259.01
695.214	158.913
698.106	105.817
700.999	88.6501
703.892	61.478
706.784	45.0286
709.677	28.3264
712.57	11.6926
715.462	9.15137
718.355	8.7041
721.248	0.147217
724.141	17.3674
727.033	4.4895
729.926	13.9905
732.819	26.2195
735.711	29.7031
738.604	14.1111
741.497	24.198
744.389	18.9748
747.282	13.5906
750.175	30.8174
753.068	28.9446
755.96	19.4099
758.853	15.5576
761.746	17.3447
764.638	11.1333
767.531	10.1765
770.424	24.7717
773.317	4.76245
776.209	1.43799
779.102	0.484131
781.995	0.507324
784.887	3.76685
787.78	2.39868
790.673	17.2593
793.565	36.6365
796.458	34.5767
799.351	29.1599
802.244	27.3965
805.136	41.2993
808.029	34.9348
810.922	51.5288
813.814	40.5085
816.707	48.6987
819.6	50.7717
822.492	61.6052
825.385	57.4878
828.278	58.1428
831.17	66.8635
834.063	79.1467
836.956	67.8059
839.849	63.1177
842.741	47.9085
845.634	21.2134
848.527	12.6008
851.419	26.5998
854.312	1.38574
857.205	21.9038
860.097	8.89502
862.99	6.43579
865.883	7.65747
868.776	16.5413
871.668	11.1953
874.561	22.0857
877.454	24.1706
880.346	18.7676
883.239	24.7842
886.132	40.281
889.024	13.5183
891.917	15.3408
894.81	16.5725
897.703	13.8584
900.595	27.8767
903.488	17.0911
906.381	32.6313
909.273	44.1504
912.166	41.4929
915.059	38.7881
917.952	43.7334
920.844	32.6626
923.737	25.8127
926.63	21.415
929.522	10.2888
932.415	21.374
935.308	15.7561
938.2	3.84082
941.093	10.4954
943.986	2.61865
946.879	11.0938
949.771	1.85156
952.664	5.67993
955.557	4.91186
958.449	8.33179
961.342	25.9788
964.235	17.7197
967.127	40.7473
970.02	37.0222
972.913	18.8093
975.806	22.7156
978.698	38.4614
981.591	61.6895
984.484	54.4282
987.376	54.6409
990.269	63.2415
993.162	74.3501
996.054	113.63
998.947	128.484
1001.84	170.365
1004.73	174.74
1007.62	193.458
1010.52	206.774
1013.41	227.591
1016.3	220.189
1019.2	211.788
1022.09	232.961
1024.98	208.134
1027.87	202.034
1030.77	196.633
1033.66	166.951
1036.55	161.889
1039.44	127.489
1042.34	103.443
1045.23	97.0361
1048.12	78.4343
1051.02	67.4893
1053.91	69.3899
1056.8	65.5515
1059.69	62.7126
1062.59	42.6206
1065.48	24.8142
1068.37	9.65405
1071.27	7.97974
1074.16	0.206299
1077.05	1.43555
1079.94	1.82471
1082.84	10.2534
1085.73	1.55054
1088.62	9.26392
1091.51	2.56592
1094.41	35.8699
1097.3	3.18897
1100.19	17.0012
1103.08	16.5093
1105.98	16.1626
1108.87	43.1655
1111.76	26.9778
1114.65	1.4585
1117.55	13.5449
1120.44	9.33423
1123.33	11.8618
1126.23	22.75
1129.12	22.2007
1132.01	9.31104
1134.9	14.169
1137.8	14.5928
1140.69	12.063
1143.58	5.67407
1146.47	12.6865
1149.37	6.21851
1152.26	24.0222
1155.15	13.281
1158.05	6.39233
1160.94	15.0593
1163.83	10.1726
1166.72	4.12549
1169.62	4.7666
1172.51	1.3562
1175.4	15.7068
1178.3	15.8562
1181.19	13.7427
1184.08	35.0884
1186.97	23.105
1189.87	27.2561
1192.76	23.8127
1195.65	15.5505
1198.54	10.9927
1201.44	8.19287
1204.33	12.6516
1207.22	0.757813
1210.11	12.5454
1213.01	21.7993
1215.9	21.8477
1218.79	15.9268
1221.68	8.26758
1224.58	17.428
1227.47	27.6043
1230.36	2.89233
1233.26	1.11987
1236.15	8.6206
1239.04	2.66724
1241.93	11.9993
1244.83	11.5247
1247.72	20.9988
1250.61	12.936
1253.51	9.83691
1256.4	13.4424
1259.29	14.6809
1262.18	29.2827
1265.08	32.3577
1267.97	15.3342
1270.86	7.7644
1273.75	16.6956
1276.65	3.24707
1279.54	2.40478
1282.43	10.2207
1285.32	0
