Measurement: Raman, 532 nm, unoriented, Raman Data Processed
Mineral: Opal
Rruff sample: X080017
Ideal chemistry: SiO_2_<i>n</i>H_2_O
Locality: Synthetic
Source: Gemological Institute of America
Description: Polished Gilson cabachon, 1.58 ct
Raman shift (cm-1)	intensity
130.059	0
133.434	2.31869
136.809	7.08723
140.184	22.4879
143.559	39.8802
146.933	36.6132
150.308	14.503
153.683	10.7527
157.058	8.97005
160.433	8.63718
163.807	7.36783
167.182	7.13409
170.557	9.65755
173.932	9.78197
177.307	7.34572
180.681	8.28215
184.056	7.15503
187.431	8.0405
190.806	4.82266
194.181	4.19865
197.556	2.24674
200.93	2.5255
204.305	1.93489
207.68	0.452209
211.055	1.45267
214.43	0.492432
217.804	0.500916
221.179	2.57785
224.554	0.255356
227.929	1.1689
231.304	2.54291
234.679	2.87311
238.053	2.86867
241.428	5.95454
244.803	8.90556
248.178	12.9488
251.553	24.0067
254.928	30.0547
258.302	46.0583
261.677	62.5962
265.052	77.6614
268.427	86.3104
271.802	74.1186
275.176	55.4205
278.551	38.3332
281.926	27.5474
285.301	21.0219
288.676	18.7357
292.05	13.1805
295.425	13.6457
298.8	12.258
302.175	12.3128
305.55	15.0117
308.925	20.9856
312.299	22.0744
315.674	14.959
319.049	12.0452
322.424	6.21207
325.799	3.76297
329.173	1.78421
332.548	0.092102
335.923	0.140076
339.298	2.80624
342.673	2.01248
346.048	1.63037
349.422	1.31116
352.797	2.26147
356.172	1.4281
359.547	2.9097
362.922	1.62332
366.296	4.85361
369.671	6.32642
373.046	7.08325
376.421	9.0557
379.796	13.39
383.171	14.256
386.545	14.7739
389.92	16.3893
393.295	18.4213
396.67	19.0446
400.045	17.1024
403.419	17.3849
406.794	24.1398
410.169	27.57
413.544	28.482
416.919	32.1825
420.293	34.6804
423.668	39.107
427.043	43.8587
430.418	47.6291
433.793	49.1146
437.168	54.1613
440.542	58.8948
443.917	65.4196
447.292	66.6157
450.667	68.2974
454.042	73.7362
457.416	73.1924
460.791	72.2109
464.166	68.8671
467.541	67.5125
470.916	67.4077
474.291	69.6893
477.665	77.6558
481.04	87.039
484.415	102.957
487.79	106.393
491.165	105.663
494.539	99.7463
497.914	85.4619
501.289	71.7931
504.664	55.6849
508.039	38.6536
511.413	26.2691
514.788	16.1381
518.163	8.82033
521.538	0.872696
524.913	0.504593
528.288	2.42271
531.663	2.78185
535.037	1.84985
538.412	1.73848
541.787	0.145935
545.162	0.957367
548.537	0.09082
551.911	0.179962
555.286	1.47125
558.661	3.86333
562.036	6.55547
565.411	5.37999
568.785	9.46898
572.16	11.2259
575.535	12.1612
578.91	15.4435
582.285	18.6368
585.659	23.7342
589.034	28.3411
592.409	33.0798
595.784	36.8537
599.159	38.2681
602.534	38.4329
605.908	36.5643
609.283	32.139
612.658	28.2095
616.033	23.713
619.408	21.5061
622.783	19.0086
626.157	16.4062
629.532	18.0897
632.907	20.2509
636.282	25.2985
639.657	29.3639
643.031	30.4451
646.406	30.0197
649.781	26.642
653.156	19.7537
656.531	17.3593
659.905	10.8866
663.28	8.0426
666.655	6.62419
670.03	3.62581
673.405	3.27901
676.779	1.56955
680.154	1.35498
683.529	1.73695
686.904	1.8338
690.279	0.906342
693.654	1.19543
697.028	0.446762
700.403	0.152634
703.778	0.26078
707.153	1.43953
710.528	1.36522
713.903	1.48893
717.277	0.217438
720.652	1.12022
724.027	0.047882
727.402	1.18067
730.777	1.31854
734.151	0.975998
737.526	1.74494
740.901	0.690834
744.276	0.979507
747.651	0.535126
751.025	2.44677
754.4	1.7267
757.775	4.04076
761.15	3.47624
764.525	7.30336
767.9	7.7664
771.274	13.1449
774.649	18.0188
778.024	25.3121
781.399	29.6552
784.774	31.1026
788.149	32.9946
791.523	34.8828
794.898	33.4905
798.273	33.5012
801.648	32.1275
805.023	35.8477
808.397	31.5031
811.772	29.4648
815.147	32.2973
818.522	31.3964
821.897	27.2403
825.271	26.8603
828.646	26.0878
832.021	25.9511
835.396	24.7186
838.771	20.6632
842.146	19.1907
845.52	16.7098
848.895	13.1495
852.27	10.8172
855.645	8.93919
859.02	7.08953
862.394	2.50694
865.769	2.22705
869.144	0.090378
872.519	0.285995
875.894	0.114853
879.269	0.475807
882.643	0.086258
886.018	2.20258
889.393	0.164474
892.768	0.242752
896.143	0.158409
899.518	0.48317
902.892	1.71219
906.267	2.3421
909.642	3.07919
913.017	0.840981
916.391	1.17666
919.766	2.28285
923.141	4.27647
926.516	2.10669
929.891	5.13375
933.266	5.05814
936.64	5.12507
940.015	8.22976
943.39	5.64077
946.765	5.16549
950.14	7.66955
953.514	8.57372
956.889	5.76907
960.264	7.37363
963.639	7.60294
967.014	5.67493
970.389	6.12493
973.763	6.00274
977.138	3.02911
980.513	4.98529
983.888	2.91634
987.263	2.34013
990.638	0.088623
994.012	0.50486
997.387	2.11372
1000.76	1.1545
1004.14	0.846672
1007.51	0.794006
1010.89	2.37258
1014.26	0.958916
1017.64	1.29913
1021.01	2.8332
1024.39	2.44029
1027.76	3.58322
1031.13	5.89787
1034.51	5.00141
1037.88	7.54573
1041.26	11.0796
1044.63	6.34692
1048.01	7.43023
1051.38	7.63779
1054.76	10.7875
1058.13	12.4537
1061.51	11.9857
1064.88	11.1494
1068.26	9.68102
1071.63	8.99168
1075.01	9.80465
1078.38	8.25022
1081.76	9.14025
1085.13	6.76114
1088.51	5.8465
1091.88	6.84542
1095.26	4.29114
1098.63	5.80606
1102.01	1.01314
1105.38	0.240356
1108.76	0.56189
1112.13	0.116028
1115.51	0.032669
1118.88	0.415939
1122.26	1.35948
1125.63	1.19669
1129.01	0.324654
1132.38	1.52937
1135.76	1.57375
1139.13	4.31109
1142.5	3.94133
1145.88	2.8129
1149.25	2.95774
1152.63	4.06572
1156	2.61999
1159.38	3.93696
1162.75	4.29685
1166.13	5.33694
1169.5	5.20444
1172.88	3.16069
1176.25	5.30309
1179.63	3.13271
1183	6.47954
1186.38	4.44843
1189.75	5.0332
1193.13	5.01014
1196.5	4.68253
1199.88	6.78489
1203.25	3.36529
1206.63	5.14793
1210	4.9957
1213.38	4.38484
1216.75	4.86891
1220.12	4.87218
1223.5	4.72814
1226.88	5.52888
1230.25	2.63705
1233.62	2.34092
1237	2.89489
1240.37	1.11092
1243.75	1.66928
1247.12	2.68749
1250.5	0.690102
1253.87	3.63618
1257.25	1.29668
1260.62	0.826012
1264	1.26656
1267.37	0.874283
1270.75	1.25616
1274.12	0.616241
1277.5	0.778969
1280.87	0.857079
1284.25	1.30376
1287.62	1.31335
1291	2.70498
1294.37	2.18749
1297.75	1.87891
1301.12	0.162399
