Measurement: Raman, 780 nm, unoriented, Raman Data Processed
Mineral: Opal
Rruff sample: R060653
Ideal chemistry: SiO_2_<i>n</i>H_2_O
Locality: Brazil
Source: Gemological Institute of America
Description: Colorless to blue tinted glassy amorphous fragment, variety opal-A
Measured chemistry: (Si_0.99_Al_0.01_)_Σ=2_(O_1.99_(OH)_0.01_)_Σ=2_· 0.17H_2_O
Raman shift (cm-1)	intensity
94.9347	0
98.3096	4.31018
101.684	1.38196
105.059	2.08844
108.434	10.4961
111.809	2.15683
115.184	2.8743
118.558	4.11118
121.933	7.46106
125.308	11.9357
128.683	8.0997
132.058	8.88644
135.433	6.85159
138.807	5.45654
142.182	5.33047
145.557	2.17926
148.932	0.050919
152.307	1.49771
155.681	2.87422
159.056	5.4274
162.431	7.89136
165.806	8.63942
169.181	12.0027
172.555	12.876
175.93	12.329
179.305	13.8474
182.68	13.9638
186.055	13.0653
189.43	14.0967
192.804	13.5263
196.179	12.7644
199.554	14.7314
202.929	12.3898
206.304	11.0553
209.678	11.7342
213.053	11.0856
216.428	9.98912
219.803	9.99567
223.178	8.85722
226.553	10.2632
229.927	9.69836
233.302	8.78758
236.677	10.6146
240.052	9.81381
243.427	7.61945
246.801	6.94838
250.176	7.38852
253.551	5.94844
256.926	4.54622
260.301	3.95935
263.675	4.11943
267.05	1.77461
270.425	2.021
273.8	1.24643
277.175	2.44627
280.55	0.234787
283.924	0.282196
287.299	1.02606
290.674	1.04314
294.049	0.184906
297.424	1.09038
300.798	0.768646
304.173	1.2419
307.548	1.7272
310.923	0.335709
314.298	0.517685
317.673	0.909546
321.047	0.611908
324.422	0.523987
327.797	0.601746
331.172	0.688232
334.547	1.23105
337.921	1.91696
341.296	3.16975
344.671	2.78944
348.046	5.33818
351.421	3.49072
354.796	5.29141
358.17	8.3069
361.545	8.84152
364.92	10.4604
368.295	12.4662
371.67	12.8488
375.044	13.1427
378.419	15.4424
381.794	15.7584
385.169	18.2291
388.544	17.6191
391.918	19.0331
395.293	21.3205
398.668	22.4045
402.043	21.9204
405.418	24.1658
408.793	26.1937
412.167	26.2457
415.542	27.4088
418.917	30.1544
422.292	32.7343
425.667	35.5619
429.041	35.806
432.416	37.9499
435.791	40.0604
439.166	40.8066
442.541	42.1486
445.915	43.8625
449.29	45.8483
452.665	46.8718
456.04	48.095
459.415	49.8583
462.789	49.9089
466.164	49.7006
469.539	48.8321
472.914	46.6095
476.289	43.0348
479.664	40.8689
483.038	37.9278
486.413	35.2308
489.788	31.2166
493.163	23.7708
496.538	15.8063
499.913	7.67697
503.287	3.33704
506.662	0.152588
510.037	1.70425
513.412	1.61865
516.787	2.55397
520.161	1.96749
523.536	1.41078
526.911	0.32016
530.286	0.997086
533.661	2.40826
537.035	4.12218
540.41	6.90561
543.785	6.82636
547.16	7.28589
550.535	9.15447
553.909	10.6821
557.284	10.9884
560.659	11.2735
564.034	12.0821
567.409	12.145
570.784	11.5814
574.158	10.4117
577.533	9.59843
580.908	7.7067
584.283	7.61776
587.658	5.99369
591.033	5.52091
594.407	5.21127
597.782	4.85848
601.157	4.62524
604.532	4.55378
607.907	4.1389
611.281	3.63372
614.656	2.8536
618.031	3.39715
621.406	1.99336
624.781	3.17259
628.155	2.04725
631.53	2.0454
634.905	1.43771
638.28	1.51627
641.655	1.87699
645.029	1.23886
648.404	1.81103
651.779	1.44344
655.154	1.20521
658.529	1.50015
661.904	1.34111
665.278	1.18329
668.653	1.35044
672.028	0.679722
675.403	0.714306
678.778	1.10871
682.153	0.803474
685.527	0.584019
688.902	0.521172
692.277	0.232689
695.652	0.142033
699.027	0.2295
702.401	0.705185
705.776	0.509678
709.151	0.01553
712.526	0.04599
715.901	0.266411
719.275	0.755341
722.65	0.204674
726.025	0.136875
729.4	0.029446
732.775	0.423725
736.149	0.155411
739.524	0.153069
742.899	0.09832
746.274	0.50436
749.649	0.878433
753.024	0.579105
756.398	1.45922
759.773	1.66012
763.148	2.13423
766.523	3.13964
769.898	4.85738
773.273	7.11959
776.647	10.317
780.022	13.785
783.397	15.0796
786.772	16.3908
790.146	17.917
793.521	16.8943
796.896	16.6062
800.271	16.4243
803.646	15.773
807.021	14.8864
810.395	14.7934
813.77	14.3211
817.145	12.9962
820.52	12.2091
823.895	12.4386
827.269	10.9748
830.644	10.549
834.019	8.58744
837.394	7.02706
840.769	5.12698
844.144	4.38374
847.518	2.79835
850.893	2.58912
854.268	2.12155
857.643	1.50374
861.018	1.304
864.393	0.90089
867.767	0.523426
871.142	0.537899
874.517	0.349815
877.892	0.702019
881.266	0.25
884.641	0.044441
888.016	0.108791
891.391	0.004189
894.766	0.224995
898.141	0.138149
901.515	0.033695
904.89	0.156742
908.265	0.177032
911.64	0.733679
915.015	0.821632
918.389	0.728714
921.764	1.23345
925.139	1.43775
928.514	1.78545
931.889	2.5649
935.264	2.80524
938.638	3.6532
942.013	4.03335
945.388	5.41837
948.763	6.32653
952.138	7.0876
955.512	7.01105
958.887	7.6088
962.262	7.54535
965.637	7.42202
969.012	6.61813
972.386	6.14821
975.761	4.97546
979.136	3.43747
982.511	2.59382
985.886	1.4438
989.261	0.591953
992.635	0.021162
996.01	0.492682
999.385	0.061304
1002.76	0.102261
1006.13	0.296635
1009.51	0.173573
1012.88	0.163036
1016.26	0.32563
1019.63	0.595257
1023.01	0.715017
1026.38	1.19793
1029.76	1.4106
1033.13	1.6987
1036.51	2.17305
1039.88	3.37062
1043.26	3.75088
1046.63	3.43327
1050.01	4.18791
1053.38	5.13314
1056.76	5.08747
1060.13	5.82618
1063.51	5.54592
1066.88	5.79907
1070.26	6.06552
1073.63	4.91272
1077.01	5.2117
1080.38	4.57349
1083.76	4.0394
1087.13	2.91876
1090.51	2.49533
1093.88	1.92086
1097.26	1.31561
1100.63	1.22682
1104	0.330339
1107.38	0.18836
1110.75	0.354786
1114.13	0.098505
1117.5	0.026285
1120.88	0.436562
1124.25	0.301424
1127.63	0.741116
1131	0.707066
1134.38	0.585669
1137.75	0.801508
1141.13	1.24001
1144.5	1.02377
1147.88	0.781908
1151.25	1.19512
1154.63	1.41953
1158	1.15938
1161.38	1.78501
1164.75	1.38654
1168.13	1.90229
1171.5	2.13109
1174.88	1.79351
1178.25	1.84752
1181.62	1.96024
1185	2.21812
1188.38	2.63135
1191.75	1.9747
1195.12	3.10058
1198.5	2.70701
1201.87	2.45633
1205.25	2.89784
1208.62	3.05907
1212	3.20483
1215.37	2.82101
1218.75	2.47187
1222.12	2.67483
1225.5	2.41942
1228.87	2.43679
1232.25	2.0941
1235.62	1.51356
1239	1.14784
1242.37	1.16669
1245.75	0.865259
1249.12	0.576008
1252.5	0.028719
1255.87	0.385674
1259.25	0.113024
1262.62	0.252892
1265.99	0.129265
1269.37	0.232014
1272.74	0.535564
1276.12	0.602095
1279.49	0.368608
1282.87	0.396902
