Measurement: Raman, 780 nm, unoriented, Raman Data Processed
Mineral: Opal
Rruff sample: R110107
Ideal chemistry: SiO_2_<i>n</i>H_2_O
Locality: Synthetic
Source: Gemological Institute of America
Description: A polished white cabochon (2.03ct), solution grown.
Raman shift (cm-1)	intensity
172.599	0
175.492	1.14191
178.385	3.19183
181.277	4.00433
184.17	4.80389
187.063	4.18744
189.955	6.59674
192.848	4.44293
195.741	4.24066
198.633	4.58466
201.526	3.94482
204.419	5.8255
207.311	8.69287
210.204	5.68219
213.097	6.97968
215.99	4.76599
218.882	4.92877
221.775	6.62585
224.668	3.02985
227.56	1.86755
230.453	0.983765
233.346	2.19665
236.238	1.84467
239.131	2.42676
242.024	0.14209
244.917	4.05859
247.809	4.21375
250.702	9.02673
253.595	9.22461
256.487	10.4555
259.38	18.7077
262.273	24.6587
265.166	35.6451
268.058	42.7501
270.951	43.0983
273.844	39.2625
276.736	28.7169
279.629	24.3045
282.522	23.5399
285.414	17.5158
288.307	13.5021
291.2	10.4844
294.092	10.208
296.985	6.98071
299.878	7.35352
302.771	7.85907
305.663	8.69959
308.556	9.17151
311.449	7.85742
314.341	9.35577
317.234	4.68658
320.127	4.84955
323.019	0.436401
325.912	2.42285
328.805	0.177307
331.698	4.53516
334.59	2.65192
337.483	3.50739
340.376	1.49408
343.268	0.411499
346.161	0.528259
349.054	0.639404
351.947	0.542664
354.839	0.500427
357.732	0.757996
360.625	2.33533
363.517	3.93231
366.41	4.58533
369.303	12.0986
372.195	10.9964
375.088	9.84528
377.981	9.11127
380.873	9.56726
383.766	10.1951
386.659	10.1379
389.552	13.7366
392.444	12.5416
395.337	12.421
398.23	10.9979
401.122	17.8588
404.015	18.7843
406.908	20.5056
409.8	21.077
412.693	24.4184
415.586	24.4644
418.479	24.6346
421.371	31.5781
424.264	32.0867
427.157	35.4551
430.049	36.6974
432.942	41.2562
435.835	43.1467
438.728	45.2752
441.62	49.4397
444.513	51.4686
447.406	53.6789
450.298	54.3993
453.191	58.9747
456.084	61.5573
458.976	61.01
461.869	57.1067
464.762	57.8377
467.654	55.8375
470.547	56.3167
473.44	59.7222
476.333	61.7835
479.225	71.7598
482.118	79.8732
485.011	92.1222
487.903	96.2534
490.796	103.031
493.689	98.1429
496.582	88.1263
499.474	78.8653
502.367	63.1348
505.26	51.7586
508.152	39.9624
511.045	29.8487
513.938	20.2672
516.83	12.8633
519.723	8.19653
522.616	2.41553
525.509	0.386871
528.401	0.182709
531.294	4.23029
534.187	0.7229
537.079	2.78787
539.972	0.250214
542.865	2.11288
545.757	1.41361
548.65	0.100586
551.543	3.59204
554.436	4.133
557.328	5.47983
560.221	7.92786
563.114	5.98257
566.006	8.81747
568.899	11.324
571.792	13.0339
574.684	12.9239
577.577	16.4234
580.47	17.1375
583.362	20.9715
586.255	22.6422
589.148	27.6744
592.041	28.0185
594.933	32.7465
597.826	38.7378
600.719	36.2964
603.611	36.5926
606.504	34.2366
609.397	32.0797
612.29	28.786
615.182	24.9519
618.075	21.0191
620.968	17.129
623.86	18.8204
626.753	15.9994
629.646	13.9962
632.538	13.9251
635.431	15.1245
638.324	17.9006
641.217	15.7551
644.109	14.2267
647.002	17.8538
649.895	14.606
652.787	11.5444
655.68	9.43321
658.573	5.86711
661.466	4.61083
664.358	6.12596
667.251	5.55853
670.144	4.82332
673.036	2.86717
675.929	4.37817
678.822	2.37592
681.714	0.981522
684.607	2.92827
687.5	4.18001
690.393	0.119186
693.285	0.360138
696.178	2.87035
699.071	1.67624
701.963	0.52774
704.856	0.825027
707.749	2.52097
710.641	1.19724
713.534	0.88269
716.427	2.81982
719.319	1.26755
722.212	0.0065
725.105	1.66136
727.998	0.183884
730.89	1.0793
733.783	2.78938
736.676	2.41016
739.568	0.999588
742.461	1.20843
745.354	0.167511
748.246	0.682907
751.139	0.808243
754.032	1.13899
756.925	2.87404
759.817	1.68712
762.71	1.12836
765.603	2.31956
768.495	4.83362
771.388	8.05287
774.281	11.3971
777.173	14.9207
780.066	18.2588
782.959	21.9477
785.852	20.0072
788.744	20.6106
791.637	23.3817
794.53	22.3594
797.422	23.0675
800.315	23.585
803.208	21.86
806.101	23.3276
808.993	23.5162
811.886	20.2065
814.779	20.395
817.671	22.068
820.564	20.4954
823.457	22.7577
826.349	21.3612
829.242	17.9356
832.135	17.8973
835.028	17.7674
837.92	16.3277
840.813	14.2304
843.706	12.1193
846.598	10.4059
849.491	10.8816
852.384	8.5215
855.276	4.7426
858.169	5.23856
861.062	2.69241
863.955	1.21652
866.847	0.861908
869.74	1.41966
872.633	0.645142
875.525	2.05646
878.418	2.49792
881.311	0.402939
884.203	1.32347
887.096	0.115402
889.989	1.27634
892.881	0.154205
895.774	0.542725
898.667	1.74751
901.56	1.0952
904.452	2.67648
907.345	0.346924
910.238	3.05876
913.13	1.32571
916.023	1.88769
918.916	2.20992
921.808	3.7836
924.701	3.31464
927.594	0.72258
930.487	4.84992
933.379	0.98288
936.272	3.45226
939.165	3.0119
942.057	2.35854
944.95	2.53388
947.843	2.9473
950.736	3.95493
953.628	0.670555
956.521	2.55946
959.414	2.12276
962.306	1.81847
965.199	2.34111
968.092	2.20904
970.984	1.44453
973.877	1.20809
976.77	0.901764
979.663	0.824448
982.555	1.68871
985.448	1.99802
988.341	2.06759
991.233	0.657326
994.126	2.37355
997.019	0.273323
999.911	0.303902
1002.8	0.099579
1005.7	2.47839
1008.59	1.39523
1011.48	1.3083
1014.38	2.32468
1017.27	4.08515
1020.16	3.773
1023.05	4.77002
1025.95	5.08954
1028.84	4.47371
1031.73	7.73312
1034.62	4.30734
1037.52	5.93066
1040.41	6.66163
1043.3	8.4734
1046.19	9.63062
1049.09	9.30107
1051.98	9.47449
1054.87	9.35312
1057.77	10.1014
1060.66	9.50363
1063.55	9.95466
1066.44	8.9481
1069.34	10.0924
1072.23	7.72723
1075.12	8.70982
1078.01	4.89655
1080.91	7.9536
1083.8	6.27323
1086.69	4.74014
1089.59	3.34864
1092.48	4.41976
1095.37	3.97404
1098.26	2.92532
1101.16	3.16602
1104.05	1.99032
1106.94	1.34014
1109.83	0.024292
1112.73	0.808823
1115.62	0.810539
1118.51	1.65871
1121.4	1.27903
1124.3	0.352287
1127.19	0.240082
1130.08	1.8122
1132.98	2.05578
1135.87	1.1939
1138.76	1.58881
1141.65	1.9383
1144.55	1.4445
1147.44	4.52963
1150.33	2.60374
1153.22	4.38877
1156.12	1.85967
1159.01	4.03537
1161.9	2.71207
1164.8	4.64883
1167.69	4.77543
1170.58	4.71246
1173.47	3.89506
1176.37	6.44155
1179.26	5.8705
1182.15	3.75534
1185.04	5.83859
1187.94	5.92856
1190.83	5.20303
1193.72	4.4669
1196.62	3.85089
1199.51	4.09032
1202.4	4.4012
1205.29	3.25866
1208.19	3.6359
1211.08	4.20646
1213.97	3.49519
1216.86	2.98076
1219.76	4.03874
1222.65	3.67144
1225.54	3.69737
1228.43	5.5117
1231.33	3.92261
1234.22	2.59981
1237.11	3.15468
1240.01	1.90143
1242.9	1.76324
1245.79	2.28152
1248.68	3.25558
1251.58	3.93887
1254.47	1.93742
1257.36	2.46013
1260.25	1.07529
1263.15	2.16327
1266.04	2.71806
1268.93	0.688766
1271.83	2.51152
1274.72	0.241394
1277.61	3.60832
1280.5	2.1214
1283.4	1.58325
