Measurement: Raman, 532 nm, unoriented, Raman Data Processed
Mineral: Opal
Rruff sample: R100149
Ideal chemistry: SiO_2_<i>n</i>H_2_O
Locality: Sri Lanka
Source: William W. Pinch
Description: White polished hemisphere
Raman shift (cm-1)	intensity
174.924	0
177.816	7.26242
180.709	3.86273
183.602	5.54538
186.494	7.43893
189.387	8.88672
192.28	5.81574
195.173	6.8411
198.065	5.44388
200.958	8.30112
203.851	7.54922
206.743	10.5383
209.636	13.5262
212.529	7.03897
215.421	14.748
218.314	10.2454
221.207	7.87763
224.1	5.35266
226.992	4.88708
229.885	5.03113
232.778	0.944397
235.67	3.2619
238.563	1.07568
241.456	1.2149
244.348	4.33118
247.241	3.74512
250.134	0.487793
253.026	1.33289
255.919	5.26529
258.812	1.66388
261.705	1.58484
264.597	1.88538
267.49	2.06604
270.383	3.90283
273.276	10.5518
276.168	11.374
279.061	14.3415
281.954	12.5092
284.846	17.2319
287.739	24.9487
290.632	23.3592
293.524	27.2449
296.417	30.1945
299.31	30.0063
302.202	32.3019
305.095	33.9544
307.988	30.2802
310.881	34.4766
313.773	31.0032
316.666	32.7504
319.559	33.5763
322.451	32.5281
325.344	31.5546
328.237	33.8834
331.13	33.3177
334.022	34.1415
336.915	30.1154
339.808	37.7228
342.7	33.1954
345.593	35.014
348.486	36.3045
351.378	39.7794
354.271	35.504
357.164	32.9387
360.057	30.8184
362.949	28.7526
365.842	26.0748
368.735	28.0718
371.627	19.923
374.52	22.4557
377.413	12.8869
380.305	17.2138
383.198	8.0553
386.091	7.59003
388.984	12.0012
391.876	2.51892
394.769	6.56775
397.662	4.76752
400.554	8.37763
403.447	10.5545
406.34	7.49426
409.233	7.58167
412.125	4.35596
415.018	7.70044
417.911	10.4239
420.803	5.67462
423.696	5.42248
426.589	0.799133
429.481	4.08472
432.374	7.21027
435.267	4.77496
438.159	1.97174
441.052	4.02985
443.945	0.540039
446.838	0.025818
449.73	2.52197
452.623	0.114014
455.516	2.82611
458.409	4.88409
461.301	3.76245
464.194	0.075806
467.087	0.891052
469.979	5.99005
472.872	6.20203
475.765	2.96082
478.657	8.76819
481.55	6.55933
484.443	12.788
487.336	5.03137
490.228	3.66217
493.121	8.06256
496.014	3.74622
498.906	4.30823
501.799	10.6427
504.692	1.02795
507.584	3.58703
510.477	4.64117
513.37	6.64667
516.263	3.77545
519.155	3.72723
522.048	0.606934
524.941	4.96521
527.833	2.45276
530.726	4.42542
533.619	7.40045
536.511	7.90479
539.404	6.05182
542.297	8.32831
545.19	6.67328
548.082	3.90485
550.975	8.76862
553.868	9.8725
556.76	8.24438
559.653	9.78534
562.546	7.54431
565.438	6.35187
568.331	7.64563
571.224	6.27844
574.117	5.73901
577.009	6.15949
579.902	3.98016
582.795	4.43011
585.687	5.20166
588.58	6.62628
591.473	10.0184
594.365	3.64581
597.258	9.26562
600.151	3.13519
603.044	2.34601
605.936	0.751709
608.829	2.43835
611.722	2.84302
614.614	1.33209
617.507	4.5846
620.4	1.67584
623.293	1.34924
626.185	0.718689
629.078	2.33813
631.971	4.01758
634.863	1.71588
637.756	1.89532
640.649	2.88263
643.542	4.86096
646.434	8.26837
649.327	1.17621
652.22	4.7948
655.112	4.54327
658.005	6.61804
660.898	5.77686
663.79	5.08783
666.683	7.57599
669.576	1.37836
672.468	5.29694
675.361	4.38831
678.254	4.37707
681.147	6.34888
684.039	5.7514
686.932	4.42944
689.825	5.49127
692.717	5.68115
695.61	5.85132
698.503	2.21924
701.396	1.60065
704.288	2.96649
707.181	2.5473
710.074	3.0484
712.966	3.18897
715.859	1.87628
718.752	3.073
721.644	3.32764
724.537	0.003479
727.43	2.21759
730.323	1.41248
733.215	2.47376
736.108	0.182739
739.001	0.025146
741.893	3.21271
744.786	1.07611
747.679	2.75873
750.572	0.55011
753.464	1.61713
756.357	5.38458
759.25	7.01489
762.142	6.26495
765.035	10.9132
767.928	16.7019
770.82	19.3405
773.713	25.5456
776.606	27.2335
779.499	29.8037
782.391	33.4605
785.284	30.2415
788.177	21.9636
791.069	18.9953
793.962	18.4521
796.855	17.6769
799.747	13.2316
802.64	10.5512
805.533	11.4311
808.426	8.35962
811.318	7.42767
814.211	8.16229
817.104	3.47467
819.996	8.00171
822.889	6.47925
825.782	8.21558
828.674	5.4082
831.567	5.20136
834.46	2.79266
837.353	2.80328
840.245	4.14929
843.138	2.60992
846.031	1.54327
848.923	1.44293
851.816	0.398254
854.709	2.29291
857.601	4.22504
860.494	0.673035
863.387	0.728088
866.28	3.77551
869.172	0.511536
872.065	2.80389
874.958	2.61163
877.851	0.115662
880.743	4.28271
883.636	1.16589
886.529	1.09497
889.421	4.47455
892.314	2.1662
895.207	1.23248
898.099	4.83917
900.992	9.63928
903.885	0.721985
906.778	5.66064
909.67	3.18439
912.563	5.62616
915.456	0.031067
918.348	1.34668
921.241	2.00409
924.134	3.62592
927.026	2.19659
929.919	5.08252
932.812	1.2973
935.705	3.52167
938.597	3.79913
941.49	0.730225
944.383	4.02753
947.275	0.45697
950.168	7.35974
953.061	5.18652
955.953	1.34338
958.846	4.91632
961.739	3.09174
964.631	7.09723
967.524	7.39978
970.417	10.2703
973.31	8.61078
976.202	7.59473
979.095	7.59998
981.988	3.42731
984.88	7.30554
987.773	2.49158
990.666	0.956177
993.559	1.04999
996.451	1.68378
999.344	6.11279
1002.24	2.78162
1005.13	0.594177
1008.02	4.03265
1010.91	0.87384
1013.81	3.81696
1016.7	2.52313
1019.59	3.63519
1022.49	0.156555
1025.38	3.4154
1028.27	4.81445
1031.16	2.84589
1034.06	1.92932
1036.95	4.88342
1039.84	4.18951
1042.73	0.914551
1045.63	3.13178
1048.52	5.81793
1051.41	5.78546
1054.31	8.50146
1057.2	14.9714
1060.09	6.41596
1062.98	8.66467
1065.88	7.3407
1068.77	11.8966
1071.66	11.1146
1074.55	13.4159
1077.45	11.181
1080.34	14.6725
1083.23	12.7678
1086.12	14.0605
1089.02	8.88007
1091.91	4.04327
1094.8	8.07837
1097.7	0.890015
1100.59	2.18066
1103.48	2.0401
1106.37	8.1554
1109.27	0.221191
1112.16	0.864258
1115.05	0.423218
1117.94	4.8291
1120.84	2.35059
1123.73	5.07477
1126.62	3.4364
1129.52	3.39502
1132.41	0.079529
1135.3	0.860589
1138.19	1.49579
1141.09	0.995239
1143.98	2.01178
1146.87	0.858704
1149.77	4.80487
1152.66	2.51562
1155.55	1.81201
1158.44	1.03949
1161.34	0.065796
1164.23	1.69147
1167.12	2.93903
1170.01	2.23615
1172.91	5.07159
1175.8	5.15118
1178.69	0.8573
1181.58	7.32959
1184.48	5.86865
1187.37	5.7821
1190.26	0.594727
1193.15	0.974915
1196.05	2.4599
1198.94	4.77197
1201.83	7.30505
1204.73	3.14783
1207.62	5.37335
1210.51	3.99286
1213.4	6.74737
1216.3	1.80066
1219.19	5.96576
1222.08	3.75507
1224.97	4.82849
1227.87	10.7618
1230.76	5.13776
1233.65	7.97162
1236.55	0.646484
1239.44	2.36487
1242.33	3.05035
1245.22	5.66858
1248.12	0.410645
1251.01	3.45892
1253.9	0.03595
1256.8	5.90649
1259.69	4.85712
1262.58	6.99213
1265.47	7.51056
1268.37	2.70575
1271.26	2.36786
1274.15	7.03076
1277.04	4.27734
1279.94	4.54388
1282.83	3.24872
1285.72	1.8819
1288.61	4.52643
1291.51	7.76758
1294.4	5.85028
1297.29	3.55164
1300.18	2.61017
