Measurement: Raman, 532 nm, unoriented, Raman Data Processed
Mineral: Opal
Rruff sample: R060652
Ideal chemistry: SiO_2_<i>n</i>H_2_O
Locality: Ethiopia
Source: Gemological Institute of America
Description: Colorless cloudy glassy fragment, variety opal-C
Measured chemistry: (Si_0.98_Al_0.02_)_Σ=1_(O_1.98_(OH)_0.02_)_Σ=2_·0.57H_2_O; OH estimated by charge balance; H_2_O by difference
Raman shift (cm-1)	intensity
149.484	0
152.377	4.9
155.27	60.084
158.163	52.418
161.055	28.271
163.948	95.292
166.841	63.046
169.733	105.648
172.626	51.403
175.519	56.22
178.412	85.3
181.304	116.856
184.197	98.166
187.09	170.663
189.982	163.028
192.875	123.739
195.768	129.796
198.661	37.847
201.553	22.957
204.446	19.973
207.339	34.556
210.231	11.319
213.124	12.805
216.017	26.677
218.909	8.068
221.802	30.536
224.695	42.135
227.587	18.574
230.48	15.78
233.373	30.71
236.266	0.318
239.158	13.538
242.051	35.133
244.944	59.655
247.836	102.822
250.729	87.308
253.622	87.982
256.514	112.082
259.407	119.515
262.3	169.622
265.193	250.329
268.085	265.971
270.978	250.72
273.871	263.732
276.763	284.053
279.656	379.229
282.549	417.888
285.441	451.105
288.334	417.648
291.227	505.569
294.12	577.966
297.012	552.525
299.905	586.5
302.798	582.759
305.69	582.725
308.583	587.511
311.476	595.13
314.369	598.078
317.261	590.118
320.154	594.156
323.047	572.717
325.939	586.821
328.832	558.468
331.725	500.348
334.617	550.32
337.51	504.308
340.403	467.709
343.296	440.91
346.188	360.958
349.081	400.854
351.974	382.87
354.866	390.271
357.759	285.905
360.652	218.63
363.544	188.635
366.437	130.386
369.33	160.554
372.223	101.885
375.115	108.338
378.008	27.541
380.901	30.76
383.793	59.438
386.686	5.515
389.579	7.075
392.471	8.314
395.364	42.48
398.257	40.992
401.15	66.629
404.042	79.571
406.935	38.319
409.828	67.809
412.72	108.4
415.613	178.678
418.506	167.638
421.398	136.558
424.291	183.425
427.184	92.649
430.077	88.149
432.969	84.545
435.862	89.354
438.755	37.774
441.647	94.006
444.54	76.912
447.433	79.45
450.326	93.021
453.218	74.7
456.111	125.814
459.004	24.695
461.896	55.217
464.789	52.607
467.682	15.803
470.574	57.998
473.467	13.794
476.36	65.103
479.253	33.999
482.145	117.558
485.038	128.782
487.931	95.571
490.823	58.447
493.716	11.149
496.609	22.954
499.501	22.007
502.394	8.344
505.287	19.082
508.18	31.183
511.072	40.664
513.965	5.802
516.858	13.466
519.75	74.183
522.643	112.899
525.536	114.482
528.429	85.914
531.321	158.181
534.214	103.593
537.107	124.314
539.999	113.473
542.892	180.3
545.785	167.681
548.677	186.733
551.57	141.897
554.463	158.021
557.356	145.295
560.248	114.005
563.141	140.196
566.034	163.17
568.926	88.731
571.819	117.857
574.712	110.104
577.604	106.771
580.497	80.372
583.39	62.176
586.282	62.069
589.175	70.014
592.068	128.196
594.961	109.552
597.853	105.183
600.746	8.386
603.639	56.094
606.531	61.826
609.424	55.604
612.317	45.807
615.209	50.84
618.102	24.234
620.995	11.123
623.888	64.172
626.78	43.138
629.673	60.608
632.566	38.919
635.458	16.29
638.351	12.038
641.244	10.488
644.137	14.533
647.029	25.026
649.922	41.03
652.815	43.606
655.707	22.792
658.6	73.474
661.493	25.953
664.385	36.705
667.278	75.403
670.171	62.686
673.064	38.296
675.956	12.492
678.849	7.615
681.742	40.63
684.634	51.274
687.527	13.097
690.42	45.411
693.312	1.524
696.205	31.853
699.098	46.646
701.991	40.19
704.883	3.746
707.776	12.804
710.669	12.094
713.561	14.817
716.454	31.41
719.347	54.658
722.24	2.118
725.132	10.068
728.025	20.196
730.918	8.797
733.81	22.733
736.703	43.38
739.596	35.024
742.489	42.489
745.381	68.038
748.274	58.003
751.167	75.335
754.059	48.421
756.952	96.696
759.845	140.813
762.737	136.532
765.63	200.401
768.523	301.386
771.416	483.404
774.308	646.398
777.201	786.852
780.094	811.494
782.986	762.457
785.879	619.718
788.772	597.95
791.664	552.192
794.557	478.36
797.45	413.705
800.343	392.582
803.235	327.843
806.128	312.763
809.021	229.612
811.913	271.206
814.806	218.356
817.699	183.505
820.591	140.751
823.484	170.538
826.377	147.67
829.269	107.35
832.162	95.369
835.055	22.977
837.948	63.318
840.84	31.42
843.733	31.393
846.626	30.685
849.518	13.32
852.411	3.814
855.304	24.763
858.196	27.847
861.089	2.226
863.982	70.411
866.875	20.431
869.767	36.46
872.66	6.201
875.553	0.876
878.445	51.215
881.338	72.556
884.231	27.833
887.123	33.969
890.016	45.51
892.909	68.893
895.802	126.314
898.694	117.398
901.587	93.484
904.48	56.996
907.372	44.819
910.265	47.338
913.158	50.964
916.05	24.809
918.943	45.925
921.836	68.81
924.729	79.431
927.621	78.152
930.514	152.764
933.407	114.904
936.299	108.967
939.192	85.831
942.085	123.344
944.978	141.958
947.87	93.035
950.763	129.716
953.656	135.838
956.548	81.986
959.441	143.296
962.334	93.646
965.227	127.724
968.119	106.915
971.012	41.968
973.905	15.666
976.797	43.472
979.69	50.271
982.583	43.635
985.475	11.006
988.368	42.532
991.261	13.646
994.154	33.104
997.046	8.863
999.939	26.384
1002.83	4.73
1005.72	36.546
1008.62	48.089
1011.51	55.975
1014.4	5.264
1017.29	36.295
1020.19	78.464
1023.08	50.876
1025.97	91.926
1028.87	124.487
1031.76	73.852
1034.65	99.786
1037.54	112.953
1040.44	142.413
1043.33	126.646
1046.22	125.561
1049.12	147.261
1052.01	154.243
1054.9	213.387
1057.79	183.856
1060.69	191.302
1063.58	265.077
1066.47	253.055
1069.36	249.066
1072.26	272.13
1075.15	303.96
1078.04	223.423
1080.93	209.438
1083.83	195.266
1086.72	174.788
1089.61	181.833
1092.51	126.013
1095.4	140.143
1098.29	112.345
1101.18	109.219
1104.08	42.572
1106.97	95.903
1109.86	54.221
1112.75	34.149
1115.65	10.444
1118.54	30.618
1121.43	12.721
1124.33	21.669
1127.22	46.325
1130.11	99.033
1133	98.232
1135.9	106.821
1138.79	72.633
1141.68	30.594
1144.57	80.56
1147.47	23.462
1150.36	62.005
1153.25	52.404
1156.14	26.431
1159.04	35.821
1161.93	34.59
1164.82	47.288
1167.72	15.492
1170.61	19.28
1173.5	81.086
1176.39	77.641
1179.29	86.056
1182.18	84.045
1185.07	130.312
1187.96	62.269
1190.86	62.77
1193.75	67.782
1196.64	61.584
1199.54	72.145
1202.43	36.147
1205.32	24.436
1208.21	80.246
1211.11	82.267
1214	29.544
1216.89	37.36
1219.78	14.853
1222.68	32.328
1225.57	30.716
1228.46	69.913
1231.36	63.049
1234.25	99.208
1237.14	60.185
1240.03	103.997
1242.93	71.758
1245.82	21.196
1248.71	75.379
1251.6	25.529
1254.5	79.85
1257.39	45.756
1260.28	40.909
1263.17	32.909
1266.07	3.913
1268.96	18.048
1271.85	20.854
1274.75	50.385
1277.64	74.804
1280.53	77.188
1283.42	37.858
1286.32	19.544
1289.21	75.544
