Measurement: Raman, 532 nm, unoriented, Raman Data Processed
Mineral: Opal
Rruff sample: X070003
Ideal chemistry: SiO_2_<i>n</i>H_2_O
Locality: Synthetic
Source: Taka Yamanaka
Description: Black polished cab, with Raman spectra that match Libyan desert glass
Raman shift (cm-1)	intensity
137.609	0
140.984	35.6915
144.358	23.6513
147.733	5.86725
151.108	27.1978
154.483	79.2775
157.858	65.9908
161.233	69.1633
164.607	52.3937
167.982	63.6251
171.357	68.0839
174.732	54.807
178.107	59.0424
181.482	57.0543
184.856	49.5295
188.231	72.6409
191.606	60.7427
194.981	58.0116
198.356	61.8461
201.731	50.71
205.105	43.7579
208.48	22.7642
211.855	23.5854
215.23	24.5132
218.605	4.53674
221.979	3.17523
225.354	10.8827
228.729	12.0165
232.104	20.5239
235.479	2.7915
238.853	15.7507
242.228	25.244
245.603	6.7348
248.978	24.9028
252.353	42.7898
255.727	33.4573
259.102	75.7324
262.477	88.6168
265.852	120.093
269.227	101.786
272.602	119.482
275.976	108.501
279.351	92.4454
282.726	57.8095
286.101	43.7067
289.476	44.9187
292.851	17.7523
296.225	44.1721
299.6	21.0039
302.975	29.0949
306.35	47.4032
309.725	5.44678
313.099	25.248
316.474	1.97339
319.849	7.83118
323.224	2.76086
326.599	3.75659
329.974	11.7335
333.348	0.576782
336.723	1.47522
340.098	5.90369
343.473	14.4332
346.848	21.1156
350.223	4.20105
353.597	16.2906
356.972	24.5829
360.347	14.0206
363.722	31.6765
367.097	27.1769
370.471	58.1097
373.846	44.0532
377.221	69.918
380.596	42.2259
383.971	67.4581
387.346	59.3226
390.72	59.3507
394.095	76.6511
397.47	102.751
400.845	90.7428
404.219	128.447
407.594	129.121
410.969	113.841
414.344	137.797
417.719	150.494
421.094	173.265
424.469	174.468
427.843	203.501
431.218	202.646
434.593	231.684
437.968	254.993
441.343	243.999
444.717	270.078
448.092	258.152
451.467	283.215
454.842	292.299
458.217	305.366
461.591	302.825
464.966	287.808
468.341	281.675
471.716	307.301
475.091	338.247
478.466	365.079
481.84	413.108
485.215	470.176
488.59	467.61
491.965	465.262
495.34	388.923
498.714	275.043
502.089	233.59
505.464	160.406
508.839	109.131
512.214	83.7623
515.589	43.9904
518.963	9.00394
522.338	9.44253
525.713	8.6152
529.088	12.9294
532.463	10.173
535.837	11.3511
539.212	8.1871
542.587	3.72983
545.962	0.702606
549.337	17.6924
552.712	24.2133
556.086	23.147
559.461	26.6276
562.836	48.1517
566.211	32.756
569.586	50.7651
572.96	52.9444
576.335	78.3108
579.71	78.8966
583.085	73.9881
586.46	87.8682
589.835	109.361
593.209	109.84
596.584	113.612
599.959	131.934
603.334	120.213
606.709	116.2
610.083	94.8805
613.458	86.1905
616.833	61.6364
620.208	55.3621
623.583	71.74
626.958	40.4108
630.332	49.4437
633.707	44.6579
637.082	42.8633
640.457	60.8129
643.832	60.6103
647.207	52.9494
650.581	39.14
653.956	19.8418
657.331	25.0974
660.706	10.5936
664.081	11.1777
667.455	7.10722
670.83	16.4712
674.205	1.6712
677.58	7.41287
680.955	16.5659
684.33	9.31488
687.704	1.02301
691.079	4.76016
694.454	3.57634
697.829	8.72699
701.204	6.47726
704.578	4.27881
707.953	6.84128
711.328	0.804291
714.703	7.55266
718.078	0.545258
721.452	3.62103
724.827	5.24283
728.202	0.538803
731.577	22.601
734.952	2.5432
738.327	7.7025
741.701	6.47798
745.076	2.95816
748.451	12.2565
751.826	20.4009
755.201	26.2069
758.576	27.2097
761.95	27.4188
765.325	49.8824
768.7	84.5521
772.075	126.472
775.45	160.995
778.824	202.215
782.199	205.131
785.574	221.658
788.949	212.632
792.324	231.63
795.698	224.093
799.073	218.978
802.448	218.843
805.823	204.491
809.198	182.564
812.573	192.58
815.947	159.549
819.322	157.183
822.697	164.629
826.072	139.833
829.447	139.758
832.822	126.026
836.196	119.555
839.571	97.9738
842.946	104.413
846.321	78.8842
849.696	51.47
853.07	34.0879
856.445	35.4655
859.82	16.8896
863.195	8.29266
866.57	7.25026
869.944	3.58356
873.319	1.48471
876.694	0.628174
880.069	1.77051
883.444	3.6492
886.819	0.562424
890.193	0.626648
893.568	0.564896
896.943	10.927
900.318	5.9982
903.693	5.33598
907.067	8.39325
910.442	5.84885
913.817	4.37077
917.192	10.073
920.567	10.1111
923.942	6.42502
927.316	15.533
930.691	11.6467
934.066	2.60552
937.441	1.60298
940.816	8.48813
944.191	1.78746
947.565	20.9198
950.94	15.8635
954.315	22.9722
957.69	22.97
961.065	17.686
964.439	20.2893
967.814	10.821
971.189	7.95261
974.564	14.0387
977.939	9.7486
981.313	14.5858
984.688	10.7022
988.063	3.3396
991.438	2.32353
994.813	4.78116
998.188	2.31491
1001.56	2.28278
1004.94	4.96631
1008.31	6.3734
1011.69	23.462
1015.06	18.0246
1018.44	20.9906
1021.81	29.4423
1025.19	42.315
1028.56	38.0171
1031.94	49.4223
1035.31	66.1108
1038.68	66.1311
1042.06	77.2741
1045.43	82.353
1048.81	83.8003
1052.18	82.8322
1055.56	80.144
1058.93	104.326
1062.31	88.2609
1065.68	88.7254
1069.06	86.9645
1072.43	87.547
1075.81	74.1413
1079.18	66.8484
1082.56	64.9653
1085.93	51.9702
1089.31	51.8886
1092.68	38.9633
1096.06	32.7933
1099.43	26.8887
1102.81	12.5174
1106.18	1.53384
1109.56	9.13081
1112.93	9.73564
1116.31	2.86961
1119.68	1.71901
1123.06	5.50853
1126.43	1.64648
1129.81	3.81074
1133.18	1.82732
1136.56	8.22069
1139.93	0.479889
1143.31	20.9448
1146.68	11.2378
1150.05	17.0176
1153.43	23.6145
1156.8	28.2788
1160.18	37.2627
1163.55	36.0864
1166.93	19.2505
1170.3	28.0393
1173.68	27.3538
1177.05	21.1156
1180.43	37.7118
1183.8	32.6113
1187.18	30.1135
1190.55	21.0164
1193.93	24.1318
1197.3	36.0376
1200.68	38.7341
1204.05	24.8216
1207.43	34.5751
1210.8	25.2693
1214.18	19.6578
1217.55	26.0244
1220.93	29.5899
1224.3	17.0028
1227.67	24.0818
1231.05	21.8326
1234.42	18.0181
1237.8	16.3756
1241.17	15.5057
1244.55	7.79958
1247.92	2.01872
1251.3	10.3013
1254.67	12.4762
1258.05	11.0847
1261.42	0.133926
1264.8	0.750534
1268.17	2.71018
1271.55	10.8978
1274.92	19.9141
1278.3	9.95618
1281.67	13.2483
1285.05	8.68587
1288.42	13.404
1291.8	16.5537
1295.17	22.412
1298.55	2.45129
1301.92	11.4424
1305.3	17.4526
