Measurement: Raman, 780 nm, unoriented, Raman Data Processed
Mineral: Opal
Rruff sample: R100149
Ideal chemistry: SiO_2_<i>n</i>H_2_O
Locality: Sri Lanka
Source: William W. Pinch
Description: White polished hemisphere
Raman shift (cm-1)	intensity
150.87	0
153.763	0.27121
156.655	2.51823
159.548	0.681534
162.441	2.46531
165.333	2.0665
168.226	3.05167
171.119	2.94832
174.012	2.3634
176.904	3.41328
179.797	1.14519
182.69	2.734
185.582	2.6601
188.475	1.47481
191.368	0.048683
194.261	1.23367
197.153	0.009232
200.046	1.21021
202.939	1.71459
205.831	1.75512
208.724	0.92408
211.617	3.21668
214.509	0.769218
217.402	2.85686
220.295	1.96541
223.188	1.79555
226.08	2.82592
228.973	1.80679
231.866	3.37576
234.758	3.63753
237.651	2.60939
240.544	3.52793
243.436	4.34496
246.329	4.6839
249.222	4.04571
252.114	2.09487
255.007	1.68303
257.9	0.947166
260.793	1.06192
263.685	0.38298
266.578	1.05816
269.471	0.647949
272.363	2.03268
275.256	3.24273
278.149	5.33578
281.041	5.02207
283.934	4.85539
286.827	6.66125
289.719	4.83488
292.612	8.86681
295.505	7.95728
298.398	9.21665
301.29	8.60616
304.183	9.36062
307.076	9.4261
309.968	9.16496
312.861	8.88454
315.754	9.267
318.647	10.956
321.539	7.87695
324.432	10.2455
327.325	9.73018
330.217	9.86916
333.11	10.2889
336.003	11.2275
338.895	11.8018
341.788	11.688
344.681	10.6838
347.574	10.666
350.466	12.2096
353.359	8.76505
356.252	8.12637
359.144	7.30804
362.037	6.62613
364.93	6.40757
367.822	4.74864
370.715	5.92586
373.608	4.88889
376.5	3.80286
379.393	5.16623
382.286	1.59717
385.179	3.06162
388.071	1.28915
390.964	0.006432
393.857	0.271736
396.749	0.605438
399.642	1.28275
402.535	3.55527
405.427	1.95285
408.32	3.05915
411.213	1.37326
414.106	2.25224
416.998	1.35627
419.891	0.861088
422.784	0.992302
425.676	0.393681
428.569	0.766052
431.462	0.975494
434.354	1.30055
437.247	0.484055
440.14	1.35291
443.033	0.641228
445.925	0.12439
448.818	0.098515
451.711	0.222977
454.603	0.445961
457.496	0.060932
460.389	1.11625
463.281	0.872066
466.174	0.236195
469.067	0.090549
471.959	0.990723
474.852	2.30143
477.745	1.98146
480.638	2.02229
483.53	2.47845
486.423	1.73943
489.316	2.23914
492.208	2.30134
495.101	2.26345
497.994	1.74317
500.887	1.51051
503.779	1.82748
506.672	0.983559
509.565	0.278378
512.457	2.30386
515.35	2.31252
518.243	1.26883
521.135	1.29645
524.028	2.40591
526.921	0.530273
529.813	0.957195
532.706	0.608673
535.599	2.24094
538.492	1.7377
541.384	2.86972
544.277	2.54015
547.17	2.75298
550.062	3.47108
552.955	2.71668
555.848	1.67325
558.74	3.181
561.633	1.65791
564.526	1.68124
567.418	1.5946
570.311	0.247166
573.204	2.0369
576.097	1.38048
578.989	1.5319
581.882	1.93572
584.775	0.335014
587.667	1.25789
590.56	1.45233
593.453	1.04892
596.346	0.088657
599.238	0.883112
602.131	3.05876
605.024	1.84241
607.916	0.747509
610.809	1.1694
613.702	1.01587
616.594	1.08433
619.487	1.69404
622.38	1.39004
625.273	1.94212
628.165	0.113661
631.058	1.18863
633.951	0.593071
636.843	1.14641
639.736	1.55137
642.629	1.41638
645.521	0.1143
648.414	1.00134
651.307	2.30382
654.199	1.70467
657.092	1.44902
659.985	1.2931
662.878	1.47419
665.77	0.003153
668.663	1.24135
671.556	0.853971
674.448	1.68884
677.341	1.89644
680.234	2.19744
683.126	0.986078
686.019	1.01885
688.912	1.94786
691.805	0.975664
694.697	0.023806
697.59	0.324358
700.483	0.551632
703.375	0.905094
706.268	0.019287
709.161	0.368443
712.053	1.08566
714.946	1.11448
717.839	0.854309
720.731	0.463335
723.624	0.738495
726.517	1.07938
729.41	0.279921
732.302	0.707878
735.195	0.449598
738.088	1.31446
740.98	0.515055
743.873	0.917772
746.766	1.7086
749.659	1.01985
752.551	1.3401
755.444	1.30246
758.337	3.0357
761.229	2.60348
764.122	2.40099
767.015	4.23825
769.907	3.86339
772.8	5.20213
775.693	5.38384
778.586	6.66241
781.478	6.61267
784.371	5.61103
787.264	6.85909
790.156	6.07867
793.049	3.13495
795.942	4.81745
798.834	2.66935
801.727	3.20099
804.62	3.29714
807.513	3.15783
810.405	1.3311
813.298	2.22385
816.191	2.18078
819.083	1.4505
821.976	1.89219
824.869	3.33959
827.761	1.56437
830.654	1.57105
833.547	1.82201
836.439	2.3585
839.332	1.54578
842.225	2.30102
845.118	2.59291
848.01	1.57712
850.903	2.86182
853.796	1.28388
856.688	1.4752
859.581	1.28039
862.474	0.176004
865.366	0.971924
868.259	2.18936
871.152	1.39647
874.044	1.20897
876.937	0.136305
879.83	1.32611
882.723	2.39638
885.615	1.00215
888.508	0.872473
891.401	0.945887
894.293	1.99316
897.186	0.30232
900.079	1.5251
902.971	0.007088
905.864	2.69004
908.757	2.57682
911.65	0.226032
914.542	0.050417
917.435	1.31369
920.328	1.11268
923.22	0.247208
926.113	0.488808
929.006	0.729631
931.899	0.736359
934.791	1.401
937.684	0.869913
940.577	0.539494
943.469	1.9367
946.362	1.03827
949.255	1.95009
952.147	0.922464
955.04	3.61152
957.933	1.79585
960.825	1.93714
963.718	3.4012
966.611	2.16702
969.504	3.02309
972.396	2.04077
975.289	1.71003
978.182	1.91142
981.074	2.40678
983.967	0.930923
986.86	1.80171
989.752	1.69547
992.645	1.81592
995.538	1.24741
998.431	2.85761
1001.32	0.858997
1004.22	1.07758
1007.11	1.32137
1010	0.068874
1012.89	1.24015
1015.79	2.79364
1018.68	1.59432
1021.57	0.624363
1024.46	0.625252
1027.36	0.524212
1030.25	2.27898
1033.14	0.816769
1036.04	0.074017
1038.93	0.800074
1041.82	1.03709
1044.71	1.40416
1047.61	2.86551
1050.5	0.787506
1053.39	2.31388
1056.29	2.01216
1059.18	1.65667
1062.07	1.23466
1064.96	1.98954
1067.86	2.79753
1070.75	2.47293
1073.64	4.28707
1076.53	3.92091
1079.43	2.08825
1082.32	3.1694
1085.21	1.31132
1088.1	2.09105
1091	0.820526
1093.89	1.58627
1096.78	0.61344
1099.67	0.522667
1102.57	0.79814
1105.46	1.14366
1108.35	0.078209
1111.25	0.521936
1114.14	1.43189
1117.03	1.37085
1119.92	0.048162
1122.82	0.447548
1125.71	0.899378
1128.6	0.292269
1131.49	2.415
1134.39	0.501381
1137.28	1.35236
1140.17	2.77735
1143.07	2.17208
1145.96	1.827
1148.85	0.327675
1151.74	0.379776
1154.64	0.765972
1157.53	0.428833
1160.42	1.60376
1163.31	0.651062
1166.21	2.03318
1169.1	2.06887
1171.99	1.08979
1174.88	1.23403
1177.78	1.32957
1180.67	0.685833
1183.56	1.46892
1186.46	2.55083
1189.35	1.17981
1192.24	1.36577
1195.13	1.28729
1198.03	1.49646
1200.92	0.526869
1203.81	1.96453
1206.7	0.254095
1209.6	1.94745
1212.49	2.54706
1215.38	4.12855
1218.28	2.3157
1221.17	1.23015
1224.06	1.87033
1226.95	0.940737
1229.85	0.735249
1232.74	0.218128
1235.63	1.61001
1238.53	1.28467
1241.42	1.28093
1244.31	3.02008
1247.2	3.39764
1250.1	2.84335
1252.99	0.344263
1255.88	2.59866
1258.77	0.355888
1261.67	1.99438
1264.56	1.80493
1267.45	0.396032
1270.34	1.67018
1273.24	0.670761
1276.13	1.25543
1279.02	0.024019
1281.91	2.55936
1284.81	0
