Measurement: Raman, 785 nm, unoriented, Raman Data Processed
Mineral: Opal
Rruff sample: X070003
Ideal chemistry: SiO_2_<i>n</i>H_2_O
Locality: Synthetic
Source: Taka Yamanaka
Description: Black polished cab, with Raman spectra that match Libyan desert glass
Raman shift (cm-1)	intensity
167.785	0
170.677	36.6799
173.57	30.6968
176.463	69.8601
179.356	44.1602
182.248	9.75366
185.141	40.0806
188.034	91.2981
190.926	91.489
193.819	134.126
196.712	126.214
199.604	170.698
202.497	141.102
205.39	128.967
208.282	97.719
211.175	121.956
214.068	73.3906
216.961	65.0112
219.853	70.0784
222.746	156.023
225.639	136.306
228.531	74.4771
231.424	73.5195
234.317	86.8689
237.209	58.2673
240.102	36.5386
242.995	53.0381
245.888	65.2954
248.78	74.9492
251.673	108.338
254.566	67.179
257.458	63.5525
260.351	91.3728
263.244	54.7922
266.137	82.0637
269.029	74.0234
271.922	88.3845
274.815	36.0242
277.707	27.9939
280.6	74.5169
283.493	51.9226
286.385	74.8567
289.278	75.3787
292.171	72.509
295.063	45.0029
297.956	16.821
300.849	50.8433
303.742	41.1731
306.634	47.9749
309.527	46.4233
312.42	49.5083
315.312	80.9382
318.205	8.26538
321.098	7.04981
323.99	2.76123
326.883	8.15771
329.776	12.3001
332.669	39.0583
335.561	13.3362
338.454	2.95972
341.347	12.2527
344.239	15.5596
347.132	26.6028
350.025	29.2463
352.918	17.1636
355.81	26.0249
358.703	40.2126
361.596	15.3086
364.488	4.63843
367.381	41.345
370.274	58.5679
373.166	14.0749
376.059	85.7825
378.952	88.6804
381.844	39.2261
384.737	65.8367
387.63	19.1294
390.523	21.0161
393.415	26.1553
396.308	74.4387
399.201	16.5207
402.093	54.4783
404.986	74.094
407.879	42.9114
410.772	54.0798
413.664	61.8252
416.557	86.8352
419.45	64.3499
422.342	93.811
425.235	92.0386
428.128	100.133
431.02	98.2471
433.913	116.051
436.806	119.121
439.699	114.616
442.591	110.367
445.484	127.7
448.377	132.894
451.269	132.459
454.162	148.779
457.055	154.018
459.947	121.228
462.84	128.47
465.733	135.677
468.625	153.921
471.518	160.923
474.411	152.374
477.304	191.111
480.196	206.733
483.089	220.234
485.982	260.414
488.874	257.074
491.767	254.088
494.66	233.412
497.553	200.789
500.445	137.117
503.338	111.262
506.231	59.4436
509.123	43.5964
512.016	56.4656
514.909	0.873535
517.802	4.45532
520.694	10.6145
523.587	35.3152
526.48	5.92114
529.372	4.44336
532.265	9.66968
535.158	28.3774
538.05	3.77856
540.943	2.02026
543.836	7.12598
546.729	2.30615
549.621	32.0735
552.514	3.57983
555.407	20.3325
558.299	28.292
561.192	31.9778
564.085	35.5826
566.977	53.4823
569.87	41.42
572.763	25.4949
575.655	43.4937
578.548	81.928
581.441	63.4076
584.333	59.9243
587.226	44.8636
590.119	63.053
593.012	71.0996
595.904	44.4097
598.797	74.1883
601.69	64.9946
604.582	80.2549
607.475	110.285
610.368	51.1543
613.26	63.9832
616.153	83.5757
619.046	33.9545
621.939	19.9913
624.831	42.8011
627.724	15.5614
630.617	45.8154
633.509	18.3953
636.402	0.360962
639.295	6.37585
642.188	46.0938
645.08	31.3823
647.973	15.7556
650.866	18.7833
653.758	10.7971
656.651	20.5402
659.544	9.54517
662.436	16.9291
665.329	10.4498
668.222	6.93469
671.115	0.026245
674.007	14.0321
676.9	20.1216
679.793	23.3189
682.685	4.99329
685.578	22.3623
688.471	15.9852
691.363	3.86536
694.256	33.2647
697.149	32.9161
700.042	19.7019
702.934	13.5424
705.827	7.20508
708.72	24.438
711.612	13.9563
714.505	57.1726
717.398	14.2507
720.29	23.1989
723.183	4.00488
726.076	12.2573
728.968	34.6411
731.861	32.2523
734.754	10.9998
737.647	17.3868
740.539	3.65039
743.432	37.2993
746.325	20.3798
749.217	23.4838
752.11	4.84802
755.003	10.6009
757.895	2.68774
760.788	28.6663
763.681	22.5258
766.574	64.2743
769.466	45.2589
772.359	53.7042
775.252	52.1043
778.144	81.161
781.037	64.1718
783.93	80.1647
786.822	96.1864
789.715	95.7365
792.608	76.1399
795.501	103.657
798.393	61.2037
801.286	74.5196
804.179	67.5169
807.071	92.9224
809.964	62.3362
812.857	69.2896
815.75	59.4869
818.642	90.8562
821.535	70.0559
824.428	49.0802
827.32	50.8551
830.213	46.9365
833.106	77.4949
835.998	79.8717
838.891	41.8624
841.784	46.7886
844.677	44.7914
847.569	15.9748
850.462	33.1494
853.355	24.3035
856.247	39.6968
859.14	15.2523
862.033	19.4009
864.925	12.3918
867.818	11.507
870.711	7.51904
873.604	4.89783
876.496	5.86304
879.389	15.3982
882.282	2.40039
885.174	13.1135
888.067	5.65906
890.96	24.5127
893.852	0.369263
896.745	16.6466
899.638	0.782837
902.53	13.3639
905.423	3.3794
908.316	39.6971
911.209	20.1121
914.101	41.3977
916.994	11.9535
919.887	41.9061
922.779	15.496
925.672	22.3323
928.565	9.1582
931.457	20.9517
934.35	13.3934
937.243	23.0326
940.136	2.97522
943.028	13.7515
945.921	15.8041
948.814	28.6364
951.706	11.3783
954.599	21.8242
957.492	32.8611
960.385	19.3321
963.277	26.4576
966.17	11.6586
969.063	31.8867
971.955	21.1141
974.848	22.1906
977.741	33.1152
980.633	24.6639
983.526	25.3751
986.419	2.99097
989.312	29.8166
992.204	18.9215
995.097	18.2356
997.99	16.1309
1000.88	41.0075
1003.77	16.2139
1006.67	17.053
1009.56	16.2703
1012.45	18.5794
1015.35	10.7624
1018.24	17.0795
1021.13	10.4729
1024.02	34.1654
1026.92	23.7581
1029.81	26.0555
1032.7	10.1033
1035.6	2.03809
1038.49	26.8867
1041.38	16.772
1044.27	9.81683
1047.17	18.0295
1050.06	24.6608
1052.95	45.8271
1055.84	34.4976
1058.74	36.1565
1061.63	32.5288
1064.52	18.7518
1067.41	8.57123
1070.31	37.9497
1073.2	29.9766
1076.09	21.0809
1078.98	25.29
1081.88	7.22699
1084.77	26.2109
1087.66	36.5223
1090.56	18.3247
1093.45	34.3501
1096.34	13.4383
1099.23	24.9564
1102.13	14.8729
1105.02	4.08716
1107.91	23.1214
1110.81	4.11365
1113.7	15.2645
1116.59	1.67841
1119.48	2.38446
1122.38	1.96741
1125.27	23.6567
1128.16	23.7355
1131.05	5.76562
1133.95	22.1041
1136.84	13.3937
1139.73	6.81134
1142.62	4.13202
1145.52	5.8186
1148.41	15.9239
1151.3	40.38
1154.19	22.1815
1157.09	26.5054
1159.98	14.7013
1162.87	15.7586
1165.77	9.10834
1168.66	12.066
1171.55	13.3773
1174.44	8.16119
1177.34	9.14038
1180.23	16.1364
1183.12	19.405
1186.02	13.1962
1188.91	27.1269
1191.8	27.8575
1194.69	31.1687
1197.59	38.9275
1200.48	18.5437
1203.37	30.3555
1206.26	15.1291
1209.16	3.4267
1212.05	30.4341
1214.94	25.0429
1217.84	23.7125
1220.73	9.29871
1223.62	5.38892
1226.51	22.6433
1229.41	0.993225
1232.3	16.775
1235.19	14.1177
