Measurement: Raman, 532 nm, unoriented, Raman Data Processed
Mineral: Opal
Rruff sample: R060650
Ideal chemistry: SiO_2_<i>n</i>H_2_O
Locality: Idaho, USA
Source: Gemological Institute of America
Description: Orange-brown glassy fragment, variety is opal-CT, based on its X-ray diffraction pattern
Measured chemistry: Si_1.00_O_2_ Â· 0.18H_2_O
Raman shift (cm-1)	intensity
150.931	0
153.824	216.01
156.716	7.381
159.609	49.801
162.502	151.201
165.394	276.277
168.287	223.025
171.18	82.855
174.072	87.246
176.965	116.334
179.858	205.723
182.751	201.648
185.643	284.939
188.536	419.168
191.429	329.559
194.321	168.725
197.214	3.248
200.107	153.699
202.999	63.689
205.892	123.27
208.785	234.312
211.678	151.406
214.57	86.447
217.463	19.471
220.356	34.592
223.248	58.369
226.141	62.523
229.034	53.877
231.926	85.088
234.819	41.479
237.712	28.021
240.605	14.613
243.497	131.783
246.39	347
249.283	465.164
252.176	459.799
255.068	465.342
257.961	308.865
260.854	330.438
263.746	474.189
266.639	494.689
269.532	516.605
272.424	543.291
275.317	558.238
278.21	793.293
281.103	1039.93
283.995	1281.48
286.888	1376.34
289.781	1456.75
292.673	1788.84
295.566	1734.85
298.459	1670.14
301.351	1734.24
304.244	1938.14
307.137	2027.49
310.03	1982.01
312.922	1886.48
315.815	1712.56
318.708	1655.97
321.6	1472.66
324.493	1476.74
327.386	1535
330.278	1542.71
333.171	1555.95
336.064	1642
338.957	1523.45
341.849	1766.03
344.742	1520.28
347.635	1582.8
350.527	1584.14
353.42	1576.93
356.313	1547.38
359.205	1375.81
362.098	1219.13
364.991	1174.8
367.884	805.959
370.776	720.824
373.669	553.98
376.562	480.303
379.454	333.668
382.347	7.846
385.24	42.32
388.132	16.615
391.025	42.273
393.918	130.852
396.81	89.262
399.703	38.178
402.596	21.838
405.489	48.314
408.381	14.986
411.274	187.629
414.167	241.141
417.06	418.475
419.952	475.004
422.845	398.936
425.738	330.104
428.63	315.139
431.523	199.32
434.416	116.105
437.308	174.238
440.201	186.074
443.094	416.957
445.987	409.449
448.879	318.033
451.772	254.6
454.665	248.371
457.557	64.021
460.45	177.594
463.343	71.23
466.235	22.113
469.128	20.996
472.021	25.734
474.914	62.234
477.806	62.607
480.699	43.82
483.592	288.992
486.484	452.93
489.377	326.178
492.27	174.398
495.162	9.484
498.055	32.787
500.948	100.242
503.841	29.773
506.733	62.332
509.626	133.125
512.519	170.512
515.411	129.014
518.304	290.135
521.197	470.338
524.089	425.039
526.982	495.764
529.875	408.23
532.768	393.922
535.66	367.678
538.553	321.979
541.446	425.41
544.338	470.463
547.231	593.061
550.124	532.498
553.016	497.49
555.909	385.385
558.802	382.879
561.695	362.951
564.587	493.094
567.48	358.918
570.373	377.844
573.265	323.928
576.158	288.102
579.051	253.047
581.943	131.201
584.836	193.326
587.729	216.396
590.622	192.518
593.514	159.209
596.407	137.623
599.3	155.691
602.192	228.512
605.085	136.625
607.978	309.014
610.87	206.287
613.763	215.768
616.656	247.541
619.549	154.443
622.441	150.545
625.334	158.928
628.227	240.357
631.119	191.43
634.012	63.076
636.905	1.115
639.797	19.816
642.69	9.854
645.583	37.873
648.476	35.883
651.368	107.535
654.261	229.045
657.154	178.375
660.046	122.525
662.939	139.348
665.832	65.988
668.724	187.52
671.617	174.346
674.51	405.939
677.403	403.965
680.295	51.947
683.188	47.049
686.081	267.35
688.973	310.787
691.866	251.73
694.759	405.947
697.652	304.486
700.544	370.555
703.437	221.234
706.33	59.654
709.222	114.283
712.115	53.211
715.008	77.506
717.901	52.283
720.793	86.168
723.686	61.008
726.579	116.928
729.471	94.627
732.364	77.301
735.257	12.732
738.149	3.164
741.042	29.064
743.935	3.373
746.828	245.986
749.72	319.145
752.613	57.828
755.506	98.234
758.398	323.482
761.291	238.824
764.184	480.516
767.076	718.752
769.969	1321.45
772.862	1837.32
775.755	2120.27
778.647	2432.48
781.54	2468.15
784.433	2299.47
787.325	1976.06
790.218	1709.19
793.111	1596.59
796.003	1393.66
798.896	1348.6
801.789	981.572
804.682	790.6
807.574	625.18
810.467	620.268
813.36	641.051
816.252	524.998
819.145	497.098
822.038	363.109
824.93	309.947
827.823	275.078
830.716	248.689
833.609	227.094
836.501	212.1
839.394	177.25
842.287	109.115
845.179	3.271
848.072	67.473
850.965	20.59
853.857	23.346
856.75	59.641
859.643	124.453
862.536	180.371
865.428	202.463
868.321	145.406
871.214	34.678
874.106	96.066
876.999	233.822
879.892	216.908
882.784	182.682
885.677	133.787
888.57	223.566
891.463	402.137
894.355	257.227
897.248	432.318
900.141	244.395
903.033	206.066
905.926	14.121
908.819	184.703
911.711	30.137
914.604	70.955
917.497	0.613
920.39	8.064
923.282	171.895
926.175	257.535
929.068	280.512
931.96	312.473
934.853	45.92
937.746	201.994
940.638	118.1
943.531	226.549
946.424	159.656
949.317	68.742
952.209	134.412
955.102	76.963
957.995	220.355
960.888	216.207
963.78	372.477
966.673	285.107
969.566	323.77
972.458	274.055
975.351	221.9
978.244	388.902
981.136	247.191
984.029	179.211
986.922	79.025
989.815	28.197
992.707	57
995.6	27.52
998.493	38.674
1001.38	194.787
1004.28	9.107
1007.17	53.307
1010.06	43.52
1012.96	298.52
1015.85	60.492
1018.74	19.031
1021.63	55.049
1024.53	77.293
1027.42	139.68
1030.31	106.824
1033.2	151.326
1036.1	183.951
1038.99	182.355
1041.88	170.461
1044.78	185.09
1047.67	243.434
1050.56	214.805
1053.45	366.717
1056.35	592.918
1059.24	591.01
1062.13	588.262
1065.03	545.973
1067.92	599.855
1070.81	731.686
1073.7	781.889
1076.6	863.262
1079.49	862.1
1082.38	809.424
1085.27	655.533
1088.17	642.662
1091.06	572.766
1093.95	500.289
1096.84	412.195
1099.74	346.662
1102.63	361.441
1105.52	344.391
1108.41	297.029
1111.31	251.67
1114.2	71.33
1117.09	81.48
1119.99	48.822
1122.88	23.916
1125.77	3.35
1128.66	28.357
1131.56	299.771
1134.45	231.74
1137.34	137.787
1140.23	161.145
1143.13	172.652
1146.02	8.203
1148.91	9.564
1151.81	26.576
1154.7	105.746
1157.59	175.947
1160.48	153.258
1163.38	76.137
1166.27	15.5
1169.16	25.523
1172.06	8.959
1174.95	236.912
1177.84	283.881
1180.73	74.455
1183.62	269.119
1186.52	373.76
1189.41	33.537
1192.3	180.863
1195.2	63.059
1198.09	51.848
1200.98	55.965
1203.87	184.852
1206.77	160.131
1209.66	192.545
1212.55	178.064
1215.44	177.613
1218.34	122.301
1221.23	56.797
1224.12	132.312
1227.02	151.682
1229.91	74.613
1232.8	125.949
1235.69	124.873
1238.59	186.543
1241.48	183.312
1244.37	94.742
1247.27	217.342
1250.16	267.146
1253.05	70.717
1255.94	6.482
1258.84	0
