Measurement: Raman, 532 nm, unoriented, Raman Data Processed
Mineral: Opal
Rruff sample: R060653
Ideal chemistry: SiO_2_<i>n</i>H_2_O
Locality: Brazil
Source: Gemological Institute of America
Description: Colorless to blue tinted glassy amorphous fragment, variety opal-A
Measured chemistry: (Si_0.99_Al_0.01_)_Σ=2_(O_1.99_(OH)_0.01_)_Σ=2_· 0.17H_2_O
Raman shift (cm-1)	intensity
149.484	0
152.377	136.998
155.27	155.488
158.163	95.708
161.055	73.431
163.948	193.453
166.841	223.758
169.733	264.805
172.626	199.155
175.519	130.346
178.412	153.398
181.304	132.346
184.197	245.989
187.09	367.27
189.982	272.21
192.875	368.269
195.768	421.809
198.661	198.299
201.553	266.484
204.446	243.341
207.339	331.37
210.231	265.872
213.124	177.011
216.017	45.829
218.909	14.677
221.802	148.7
224.695	43.695
227.587	77.223
230.48	10.491
233.373	89.408
236.266	10.728
239.158	30.7
242.051	132.673
244.944	110.457
247.836	189.5
250.729	203.895
253.622	213.775
256.514	184.138
259.407	225.007
262.3	225.944
265.193	226.791
268.085	253.101
270.978	156.346
273.871	126.729
276.763	157.85
279.656	114.662
282.549	83.863
285.441	119.354
288.334	158.522
291.227	190.893
294.12	20.351
297.012	11.382
299.905	60.575
302.798	4.181
305.69	38.453
308.583	46.084
311.476	14.275
314.369	14.242
317.261	135.221
320.154	41.271
323.047	107.131
325.939	83.977
328.832	56.285
331.725	38.623
334.617	8.783
337.51	42.002
340.403	130.77
343.296	137.025
346.188	155.922
349.081	162.268
351.974	396.576
354.866	268.156
357.759	310.346
360.652	305.396
363.544	322.141
366.437	355.312
369.33	432.748
372.223	463.734
375.115	525.225
378.008	680.217
380.901	708.838
383.793	641.344
386.686	774.217
389.579	886.941
392.471	946.537
395.364	994.854
398.257	992.432
401.15	1220.08
404.042	1175.59
406.935	1309.83
409.828	1415.56
412.72	1537.25
415.613	1729.1
418.506	1809.23
421.398	1916.88
424.291	2011.21
427.184	2087.16
430.077	2258.24
432.969	2390.05
435.862	2555.79
438.755	2700.95
441.647	2864.74
444.54	2837.9
447.433	2825.5
450.326	3035.88
453.218	3159.83
456.111	3312.84
459.004	3242.45
461.896	3252.13
464.789	3235.47
467.682	3225.38
470.574	3142.83
473.467	3009.76
476.36	2876.64
479.253	2679.96
482.145	2725.88
485.038	2543.18
487.931	2443.12
490.823	1916.48
493.716	1371.61
496.609	975.468
499.501	627.66
502.394	367.328
505.287	90.571
508.18	21.188
511.072	173.181
513.965	172.604
516.858	121.874
519.75	89.85
522.643	2.801
525.536	21.862
528.429	20.187
531.321	47.251
534.214	95.717
537.107	112.13
539.999	189.248
542.892	278.431
545.785	286.096
548.677	356.314
551.57	351.85
554.463	499.286
557.356	378.146
560.248	393.904
563.141	508.109
566.034	520.787
568.926	551.043
571.819	571.612
574.712	372.124
577.604	380.996
580.497	329.722
583.39	308.662
586.282	324.752
589.175	278.745
592.068	308.574
594.961	199.043
597.853	206.01
600.746	134.684
603.639	153.711
606.531	209.002
609.424	216.051
612.317	166.223
615.209	141.021
618.102	118.067
620.995	85.663
623.888	85.646
626.78	173.479
629.673	82.544
632.566	79.932
635.458	79.962
638.351	72.622
641.244	32.248
644.137	63.491
647.029	104.48
649.922	128.478
652.815	138.803
655.707	88.325
658.6	230.198
661.493	87.014
664.385	103.427
667.278	141.497
670.171	100.521
673.064	87.059
675.956	104.301
678.849	23.29
681.742	40.09
684.634	87.37
687.527	101.201
690.42	65.877
693.312	124.761
696.205	13.115
699.098	110.707
701.991	54.791
704.883	4.656
707.776	56.598
710.669	45.959
713.561	65.957
716.454	1.715
719.347	15.475
722.24	28.877
725.132	54.818
728.025	110.607
730.918	71.064
733.81	14.651
736.703	55.097
739.596	10.061
742.489	43
745.381	176.027
748.274	213.475
751.167	190.098
754.059	63.322
756.952	235.564
759.845	271.027
762.737	169.939
765.63	349.417
768.523	481.931
771.416	819.359
774.308	1159.98
777.201	1338.3
780.094	1507.03
782.986	1712.53
785.879	1850.27
788.772	1834.9
791.664	1875.3
794.557	1819.06
797.45	1779.87
800.343	1677.85
803.235	1567.11
806.128	1537.2
809.021	1465.14
811.913	1440.12
814.806	1364.28
817.699	1254.55
820.591	1211.69
823.484	1177.24
826.377	976.237
829.269	1003.2
832.162	791.891
835.055	633.294
837.948	542.479
840.84	325.828
843.733	252.375
846.626	172.044
849.518	84.36
852.411	2.051
855.304	27.021
858.196	0.614
861.089	12.792
863.982	78.385
866.875	15.15
869.767	21.261
872.66	55.052
875.553	23.518
878.445	45.709
881.338	65.726
884.231	53.606
887.123	89.14
890.016	156.201
892.909	221.604
895.802	219.729
898.694	204.134
901.587	182.354
904.48	171.001
907.372	197.011
910.265	166.269
913.158	123.14
916.05	164.911
918.943	198.485
921.836	214.496
924.729	306.578
927.621	356.917
930.514	302.759
933.407	336.712
936.299	408.622
939.192	465.16
942.085	486.092
944.978	547.504
947.87	605.374
950.763	545.081
953.656	610.681
956.548	796.828
959.441	710.755
962.334	723.455
965.227	712.853
968.119	639.55
971.012	527.329
973.905	406.507
976.797	398.087
979.69	291.459
982.583	195.274
985.475	90.223
988.368	74.368
991.261	63.119
994.154	5.199
997.046	38.126
999.939	36.416
1002.83	136.088
1005.72	6.229
1008.62	31.197
1011.51	13.598
1014.4	22.287
1017.29	124.062
1020.19	158.951
1023.08	120.964
1025.97	188.714
1028.87	234.884
1031.76	278.489
1034.65	306.95
1037.54	378.995
1040.44	462.795
1043.33	383.678
1046.22	528.634
1049.12	447.741
1052.01	675.917
1054.9	689.896
1057.79	739.9
1060.69	778.004
1063.58	852.309
1066.47	809.362
1069.36	762.112
1072.26	761.702
1075.15	776.047
1078.04	668.572
1080.93	539.243
1083.83	484.02
1086.72	427.894
1089.61	352.806
1092.51	374.558
1095.4	318.421
1098.29	287.809
1101.18	252.68
1104.08	166.789
1106.97	43.557
1109.86	26.55
1112.75	58.134
1115.65	16.681
1118.54	63.73
1121.43	44.706
1124.33	30.808
1127.22	14.235
1130.11	144.123
1133	185.468
1135.9	176.125
1138.79	168.072
1141.68	84.053
1144.57	9.883
1147.47	44.209
1150.36	80.585
1153.25	194.93
1156.14	193.609
1159.04	247.778
1161.93	131.336
1164.82	245.107
1167.72	122.307
1170.61	192.284
1173.5	149.605
1176.39	153.838
1179.29	266.489
1182.18	218.034
1185.07	261.327
1187.96	234.079
1190.86	275.236
1193.75	284.159
1196.64	261.083
1199.54	250.709
1202.43	205.952
1205.32	272.392
1208.21	236.729
1211.11	221.241
1214	276.961
1216.89	204.847
1219.78	175.381
1222.68	145.292
1225.57	120.792
1228.46	182.991
1231.36	290.098
1234.25	199.727
1237.14	283.124
1240.03	154.379
1242.93	74.272
1245.82	109.395
1248.71	194.341
1251.6	100.094
1254.5	11.269
1257.39	131.293
1260.28	56.614
