Measurement: Raman, 532 nm, unoriented, Raman Data Processed
Mineral: Opal
Rruff sample: R060651
Ideal chemistry: SiO_2_<i>n</i>H_2_O
Locality: Mexico
Source: Gemological Institute of America
Description: Orange-brown glassy fragment, variety is opal-CT, based on its X-ray diffraction pattern
Measured chemistry: Si_1.00_O_2_ Â· 0.31H_2_O
Raman shift (cm-1)	intensity
152.377	0
155.27	67.617
158.163	82.622
161.055	87.186
163.948	133.712
166.841	75.535
169.733	133.305
172.626	125.436
175.519	148.917
178.412	284.509
181.304	159.732
184.197	274.991
187.09	306.814
189.982	166.229
192.875	176.631
195.768	167.758
198.661	27.122
201.553	18.704
204.446	50.49
207.339	44.157
210.231	39.137
213.124	87.29
216.017	22.488
218.909	136.271
221.802	230.142
224.695	157.613
227.587	19.1
230.48	61.402
233.373	63.257
236.266	71.142
239.158	11.525
242.051	269.66
244.944	217.723
247.836	294.906
250.729	385.048
253.622	320.43
256.514	326.611
259.407	434.742
262.3	508.843
265.193	716.761
268.085	717.829
270.978	828.269
273.871	1009.61
276.763	1162.43
279.656	1327.9
282.549	1673.19
285.441	1697.79
288.334	1861.7
291.227	1946.83
294.12	2008.36
297.012	2156.08
299.905	2203.52
302.798	2155.53
305.69	2280.88
308.583	2384.87
311.476	2448.34
314.369	2254.91
317.261	2060.33
320.154	1983.57
323.047	1947.86
325.939	1889.18
328.832	1854.99
331.725	1866.8
334.617	1897.55
337.51	1775.69
340.403	1677.42
343.296	1561.61
346.188	1489.49
349.081	1392.73
351.974	1435.37
354.866	1190.57
357.759	1054.15
360.652	875.976
363.544	921.441
366.437	669.967
369.33	540.022
372.223	455.14
375.115	273.602
378.008	171.93
380.901	145.091
383.793	23.189
386.686	52.28
389.579	75.296
392.471	108.882
395.364	42.827
398.257	22.764
401.15	62.212
404.042	104.852
406.935	81.341
409.828	257.657
412.72	230.992
415.613	281.671
418.506	344.562
421.398	256.122
424.291	235.845
427.184	285.988
430.077	113.132
432.969	220.396
435.862	121.077
438.755	184.692
441.647	214.624
444.54	263.184
447.433	24.005
450.326	196.222
453.218	172.609
456.111	69.193
459.004	58.151
461.896	31.43
464.789	17.009
467.682	32.86
470.574	27.775
473.467	153.282
476.36	194.646
479.253	183.726
482.145	317.017
485.038	453.295
487.931	480.545
490.823	277.7
493.716	204.216
496.609	233.831
499.501	108.788
502.394	19.629
505.287	7.848
508.18	4.346
511.072	16.021
513.965	10.629
516.858	126.229
519.75	132.668
522.643	175.806
525.536	238.982
528.429	217.99
531.321	196.191
534.214	185.983
537.107	187.767
539.999	189.844
542.892	208.735
545.785	228.099
548.677	248.889
551.57	267.887
554.463	276.539
557.356	254.191
560.248	242.007
563.141	208.701
566.034	273.702
568.926	222.739
571.819	161.716
574.712	112.378
577.604	102.043
580.497	96.862
583.39	143.828
586.282	74.465
589.175	161.215
592.068	107.396
594.961	27.809
597.853	113.657
600.746	106.199
603.639	110.804
606.531	133.874
609.424	22.786
612.317	118.297
615.209	199.033
618.102	31.103
620.995	19.041
623.888	110.502
626.78	33.617
629.673	40.413
632.566	60.66
635.458	65.804
638.351	43.711
641.244	25.245
644.137	92.047
647.029	107.102
649.922	157.522
652.815	151.05
655.707	169.874
658.6	154.872
661.493	146.658
664.385	104.438
667.278	51.563
670.171	156.481
673.064	128.373
675.956	117.39
678.849	2.165
681.742	84.899
684.634	144.595
687.527	157.015
690.42	91.502
693.312	73.81
696.205	80.448
699.098	91.195
701.991	10.139
704.883	102.764
707.776	3.593
710.669	52.31
713.561	21.766
716.454	15.973
719.347	87.211
722.24	4.152
725.132	83.307
728.025	79.045
730.918	87.663
733.81	17.169
736.703	82.709
739.596	8.774
742.489	16.781
745.381	162.015
748.274	209.097
751.167	159.818
754.059	182.331
756.952	257.952
759.845	339.934
762.737	349.528
765.63	576.472
768.523	855.285
771.416	1313
774.308	1822.77
777.201	2080.95
780.094	2051.85
782.986	1911.69
785.879	1700.15
788.772	1445.34
791.664	1247.13
794.557	1121.98
797.45	983.709
800.343	871.544
803.235	682.895
806.128	568.832
809.021	466.135
811.913	495.657
814.806	448.534
817.699	417.2
820.591	319.379
823.484	325.769
826.377	176.635
829.269	252.027
832.162	149.741
835.055	126.056
837.948	80.218
840.84	47.836
843.733	24.36
846.626	61.751
849.518	26.172
852.411	32.922
855.304	39.05
858.196	16.236
861.089	121.617
863.982	53.884
866.875	75.037
869.767	107.644
872.66	4.351
875.553	160.204
878.445	134.009
881.338	101.08
884.231	76.644
887.123	123.751
890.016	119.686
892.909	265.525
895.802	243.381
898.694	275.504
901.587	169.023
904.48	90.377
907.372	51.606
910.265	96.633
913.158	41.608
916.05	43.266
918.943	82.938
921.836	39.161
924.729	111.707
927.621	172.142
930.514	207.034
933.407	118.96
936.299	208.705
939.192	124.978
942.085	162.49
944.978	185.286
947.87	126.624
950.763	171.085
953.656	188.399
956.548	294.933
959.441	308.597
962.334	283.466
965.227	356.099
968.119	402.148
971.012	361.395
973.905	264.301
976.797	238.402
979.69	227.615
982.583	188.986
985.475	65.74
988.368	56.361
991.261	45.143
994.154	80.152
997.046	9.104
999.939	75.656
1002.83	108.871
1005.72	7.732
1008.62	64.289
1011.51	117.246
1014.4	31.582
1017.29	90.941
1020.19	90.15
1023.08	99.338
1025.97	172.674
1028.87	200.33
1031.76	129.039
1034.65	86.662
1037.54	192.186
1040.44	273.389
1043.33	172.496
1046.22	297.15
1049.12	273.426
1052.01	308.109
1054.9	359.98
1057.79	402.646
1060.69	470.414
1063.58	565.885
1066.47	599.941
1069.36	645.725
1072.26	703.621
1075.15	802.518
1078.04	710.732
1080.93	681.523
1083.83	653.195
1086.72	577.471
1089.61	527.832
1092.51	419.174
1095.4	396.555
1098.29	371.674
1101.18	295.576
1104.08	270.928
1106.97	231.576
1109.86	199.092
1112.75	194.168
1115.65	174.906
1118.54	152.674
1121.43	34.318
1124.33	42.365
1127.22	125.418
1130.11	53.105
1133	84.232
1135.9	160.645
1138.79	67.771
1141.68	152.744
1144.57	22.791
1147.47	85.252
1150.36	71.783
1153.25	76.717
1156.14	28.039
1159.04	110.053
1161.93	4.35
1164.82	59.936
1167.72	74.039
1170.61	78.664
1173.5	65.928
1176.39	165.936
1179.29	170.766
1182.18	61.361
1185.07	126.227
1187.96	110.76
1190.86	79.434
1193.75	110.031
1196.64	71.754
1199.54	98.492
1202.43	147.256
1205.32	70.902
1208.21	131.5
1211.11	185.305
1214	92.523
1216.89	183.188
1219.78	67.236
1222.68	16.58
1225.57	73.941
1228.46	116.094
1231.36	115.723
1234.25	120.865
1237.14	286.137
1240.03	154.1
1242.93	74.471
1245.82	127.855
1248.71	137.49
1251.6	43.914
1254.5	84.459
