Measurement: Raman, 532 nm, unoriented, Raman Data Processed
Mineral: Orickite
Rruff sample: R070739
Ideal chemistry: CuFeS_2_nH_2_O
Locality: Abundancia vein, Emma Louise Gold mine, El Guanaco, Taltal Province, Antofagasta, Chile
Source: Michael Scott
Description: Dark gray to black metallic massive
Raman shift (cm-1)	intensity
149.054	0
151.947	173.012
154.84	326.103
157.732	448.041
160.625	403.066
163.518	336.207
166.411	181.041
169.303	156.165
172.196	46.7695
175.089	21.957
177.981	80.8252
180.874	97.1816
183.767	15.6514
186.659	165.677
189.552	33.5332
192.445	150.966
195.338	139.164
198.23	251.796
201.123	219.686
204.016	150.267
206.908	209.846
209.801	352.808
212.694	250.427
215.586	358.813
218.479	408.752
221.372	378.268
224.264	430.63
227.157	447.919
230.05	489.954
232.943	468.426
235.835	374.362
238.728	303.382
241.621	309.173
244.513	285.95
247.406	303.375
250.299	199.602
253.191	319.052
256.084	322.683
258.977	433.223
261.87	351.818
264.762	354.697
267.655	700.283
270.548	519.035
273.44	455.803
276.333	395.737
279.226	407.442
282.118	325.31
285.011	260.052
287.904	321.965
290.796	334.5
293.689	132.224
296.582	41.0166
299.475	42.5303
302.367	124.477
305.26	116.919
308.153	116.675
311.045	28.4062
313.938	109.987
316.831	41.9756
319.724	72.8701
322.616	340.125
325.509	110.02
328.402	266.712
331.294	214.172
334.187	130.969
337.08	32.8789
339.972	138.652
342.865	92.9805
345.758	22.1279
348.651	43.1387
351.543	46.6406
354.436	137.14
357.329	84.5596
360.221	135.684
363.114	84.8477
366.007	67.8027
368.899	136.134
371.792	161.227
374.685	136.934
377.577	210.238
380.47	327.094
383.363	379.341
386.256	488.442
389.148	458.165
392.041	386.201
394.934	403.29
397.826	438.179
400.719	409.399
403.612	356.348
406.505	310.658
409.397	234.101
412.29	180.765
415.183	169.524
418.075	13.9531
420.968	34.874
423.861	26.7539
426.753	23.21
429.646	71.3232
432.539	62.0869
435.432	73.582
438.324	91.1269
441.217	55.294
444.11	56.5859
447.002	33.083
449.895	22.9551
452.788	102.327
455.68	158.697
458.573	76.875
461.466	28.291
464.358	58.668
467.251	105.166
470.144	73.9102
473.037	144.386
475.929	119.679
478.822	183.474
481.715	370.494
484.607	161.785
487.5	151.997
490.393	123.601
493.286	117.282
496.178	165.717
499.071	209.029
501.964	288.526
504.856	354.001
507.749	420.428
510.642	414.623
513.534	458.742
516.427	383.735
519.32	295.36
522.212	322.431
525.105	215.987
527.998	339.26
530.891	268.628
533.783	109.333
536.676	144.906
539.569	105.447
542.461	144.312
545.354	60.8525
548.247	70.6894
551.139	112.369
554.032	16.418
556.925	16.8252
559.818	108.935
562.71	45.8857
565.603	11.1914
568.496	117.177
571.388	5.83203
574.281	41.498
577.174	55.7842
580.067	98.1943
582.959	45.6348
585.852	40.8897
588.745	105.861
591.637	110.417
594.53	223.608
597.423	208.356
600.315	133.29
603.208	79.0791
606.101	120.569
608.994	264.159
611.886	246.16
614.779	277.67
617.672	288.782
620.564	437.906
623.457	390.87
626.35	533.576
629.242	543.821
632.135	538.203
635.028	507.792
637.92	564.631
640.813	395.031
643.706	477.748
646.599	316.346
649.491	269.418
652.384	274.983
655.277	169.009
658.169	113.186
661.062	84.2305
663.955	153.87
666.847	115.858
669.74	145.917
672.633	51.1553
675.525	25.6348
678.418	18.7393
681.311	97.0527
684.204	68.4463
687.096	20.5879
689.989	47.2285
692.882	141.368
695.774	87.4727
698.667	462.537
701.56	41.791
704.452	79.0986
707.345	102.811
710.238	80.4531
713.131	163.97
716.023	100.245
718.916	43.7236
721.809	79.7988
724.701	91.1103
727.594	78.1279
730.487	82.3555
733.38	16.6191
736.272	23.4131
739.165	49.456
742.058	48.3027
744.95	92.3994
747.843	17.0352
750.736	89.5879
753.628	189.243
756.521	85.3106
759.414	53.7861
762.307	15.6855
765.199	98.6777
768.092	73.4961
770.985	201.981
773.877	105.784
776.77	134.159
779.663	109.507
782.555	162.799
785.448	92.2002
788.341	196.708
791.234	96.9912
794.126	42.7773
797.019	93.1836
799.912	176.326
802.804	88.2656
805.697	209.241
808.59	152.757
811.482	228.151
814.375	117.828
817.268	127.916
820.16	116.534
823.053	143.369
825.946	117.789
828.839	218.261
831.731	132.935
834.624	64.7139
837.517	51.706
840.409	110.421
843.302	87.0996
846.195	202.732
849.087	177.248
851.98	136.825
854.873	93.3115
857.766	158.926
860.658	102.179
863.551	466.167
866.444	46.6885
869.336	62.4258
872.229	21.3613
875.122	59.416
878.014	81.8398
880.907	106.16
883.8	105.769
886.693	50.4355
889.585	67.0566
892.478	17.0176
895.371	46.0703
898.263	0.380859
901.156	18.3691
904.049	84.1543
906.942	30.1387
909.834	55.2949
912.727	124.938
915.62	10.8477
918.512	74.0059
921.405	126.465
924.298	112.426
927.19	30.1719
930.083	62.2344
932.976	72.3848
935.869	197.201
938.761	138.912
941.654	155.494
944.547	381.603
947.439	122.982
950.332	497.588
953.225	252.836
956.117	96.7363
959.01	41.6152
961.903	105.394
964.795	104.004
967.688	63.8359
970.581	124.166
973.474	59.9043
976.366	121.387
979.259	88.6133
982.152	62.4668
985.044	5.60156
987.937	66.3691
990.83	42.043
993.722	75.0996
996.615	66.8965
999.508	98.6289
1002.4	143.086
1005.29	178.883
1008.19	114.529
1011.08	189.082
1013.97	48.1895
1016.86	154.916
1019.76	138.219
1022.65	135.152
1025.54	70.1562
1028.43	185.725
1031.33	92.7344
1034.22	91.791
1037.11	47.5078
1040.01	96.6699
1042.9	115.371
1045.79	146.256
1048.68	24.0195
1051.58	21.4785
1054.47	222.133
1057.36	44.1348
1060.26	22.9316
1063.15	62.0625
1066.04	121.684
1068.93	8.66602
1071.83	145.164
1074.72	205.066
1077.61	162.422
1080.5	103.65
1083.4	121.475
1086.29	122.738
1089.18	20.0957
1092.07	31.541
1094.97	245.391
1097.86	51.1484
1100.75	9.51367
1103.64	109.633
1106.54	94.4082
1109.43	39.8867
1112.32	194.959
1115.22	217.031
1118.11	146.315
1121	42.3047
1123.89	68.0352
1126.79	477.207
1129.68	171.697
1132.57	206.793
1135.46	69.5469
1138.36	132.5
1141.25	36.9785
1144.14	17.8926
1147.04	127.166
1149.93	119.242
1152.82	145.697
1155.71	221.74
1158.61	141.93
1161.5	181.234
1164.39	37.5742
1167.28	114.856
1170.18	89.6133
1173.07	12.459
1175.96	164.822
1178.86	108.152
1181.75	202.674
1184.64	30.459
1187.53	120.594
1190.43	188.938
1193.32	67.5684
1196.21	100.281
1199.1	59.8164
1202	37.5762
1204.89	19.1895
1207.78	173.606
1210.67	139.486
1213.57	28.4824
1216.46	182.031
1219.35	72.3047
1222.25	99.3731
1225.14	93.7012
1228.03	88.4434
1230.92	1.20703
1233.82	36.2695
1236.71	111.061
1239.6	137.144
1242.49	123.963
1245.39	53.2246
1248.28	41.2168
1251.17	425.988
1254.07	130.467
1256.96	162.594
1259.85	366.6
1262.74	143.18
1265.64	41.4141
1268.53	12.2969
1271.42	4.65625
1274.31	80.3496
1277.21	202.963
1280.1	56.9707
1282.99	96.3711
1285.88	131.406
1288.78	5.34375
1291.67	59.4941
1294.56	90.8164
1297.46	24.2324
1300.35	32.3574
