Measurement: Raman, 532 nm, unoriented, Raman Data Processed
Mineral: Orthominasragrite
Rruff sample: R060974
Ideal chemistry: V^4+^O(S^6+^O_4_)5H_2_O
Locality: Temple Mountain, Emery County, Utah, USA
Source: Michael Scott
Description: Light blue grainy crust
Raman shift (cm-1)	intensity
232.409	0
235.302	9.82129
238.195	2.15332
241.087	65.1773
243.98	104.153
246.873	149.346
249.765	124.819
252.658	68.7744
255.551	108.865
258.443	171.769
261.336	206.796
264.229	281.366
267.122	318.41
270.014	361.607
272.907	336.458
275.8	333.936
278.692	332.93
281.585	360.609
284.478	298.356
287.37	302.07
290.263	381.048
293.156	180.159
296.049	125.44
298.941	123.945
301.834	189.797
304.727	145.211
307.619	145.131
310.512	92.9199
313.405	71.7773
316.298	8.99219
319.19	22.5806
322.083	14.9268
324.976	8.09326
327.868	95.73
330.761	92.3638
333.654	61.1489
336.546	47.7315
339.439	13.8901
342.332	53.9351
345.224	24.6035
348.117	30.667
351.01	79.585
353.903	75.4849
356.795	50.7773
359.688	2.45019
362.581	53.9253
365.473	31.0557
368.366	86.9102
371.259	9.01855
374.151	1.31397
377.044	7.9165
379.937	17.0532
382.83	53.1201
385.722	37.6562
388.615	34.1919
391.508	53.9414
394.4	67.9814
397.293	36.6929
400.186	25.8599
403.079	11.582
405.971	44.2759
408.864	59.0386
411.757	77.7881
414.649	110.579
417.542	156.988
420.435	161.049
423.327	103.979
426.22	99.146
429.113	179.731
432.005	147.742
434.898	137.033
437.791	118.106
440.683	188.7
443.576	105.62
446.469	115.682
449.362	129.341
452.254	194.073
455.147	221.72
458.04	200.26
460.932	191.73
463.825	142.407
466.718	180.413
469.611	186.596
472.503	136.606
475.396	154.271
478.289	107.474
481.181	132.442
484.074	248.915
486.967	157.525
489.859	107.252
492.752	5.08789
495.645	52.3218
498.538	111.484
501.43	26.5161
504.323	52.7217
507.216	33.5049
510.108	112.364
513.001	65.2158
515.894	49.2798
518.786	93.0068
521.679	95.2764
524.572	3.31543
527.465	64.8247
530.357	41.3125
533.25	24.855
536.143	19.7642
539.035	0.852539
541.928	60.2749
544.821	60.2544
547.713	66.1074
550.606	18.0215
553.499	13.5791
556.391	46.98
559.284	12.3779
562.177	51.875
565.07	44.9482
567.962	35.0264
570.855	28.1562
573.748	92.5205
576.64	44.6782
579.533	44.0039
582.426	86.5508
585.318	101.872
588.211	139.652
591.104	142.222
593.997	103.577
596.889	157.255
599.782	175.633
602.675	189.906
605.567	222.257
608.46	240.256
611.353	286.681
614.245	288.938
617.138	272.973
620.031	280.584
622.924	330.042
625.816	304.146
628.709	242.855
631.602	240.007
634.494	189.743
637.387	208.696
640.28	188.762
643.172	181.348
646.065	204.953
648.958	248.891
651.851	220.133
654.743	145.042
657.636	171.622
660.529	138.93
663.421	150.039
666.314	48.7803
669.207	142.005
672.099	90.5776
674.992	1.77441
677.885	43.9351
680.778	25.979
683.67	34.3501
686.563	66.3823
689.456	41.8369
692.348	28.7412
695.241	96.3438
698.134	78.5093
701.026	20.5605
703.919	9.09326
706.812	52.5278
709.705	4.90088
712.597	16.0527
715.49	28.2671
718.383	67.7754
721.275	14.1216
724.168	4.41357
727.061	45.5317
729.953	74.1377
732.846	66.4722
735.739	12.8018
738.631	7.12354
741.524	9.28711
744.417	11.9238
747.31	87.3662
750.202	118.739
753.095	116.111
755.988	117.449
758.88	54.5249
761.773	41.939
764.666	78.8691
767.558	95.9976
770.451	103.297
773.344	119.594
776.237	47.1514
779.129	60.8242
782.022	122.46
784.915	125.923
787.807	218.23
790.7	194.338
793.593	219.25
796.486	207.2
799.378	237.878
802.271	212.443
805.164	165.416
808.056	276.754
810.949	251.546
813.842	242.776
816.734	232.553
819.627	276.619
822.52	303.752
825.413	253.676
828.305	324.989
831.198	262.743
834.091	230.573
836.983	248.992
839.876	222.44
842.769	227.769
845.661	188.131
848.554	111.535
851.447	97.3794
854.34	35.9531
857.232	30.418
860.125	99.2627
863.018	70.1274
865.91	44.7969
868.803	23.0703
871.696	67.3745
874.588	38.936
877.481	27.6987
880.374	12.2612
883.266	14.1802
886.159	50.7241
889.052	94.6694
891.944	94.1929
894.837	97.9736
897.73	131.55
900.623	57.4736
903.515	30.4795
906.408	31.6357
909.301	19.2393
912.193	12.831
915.086	1.41016
917.979	22.8408
920.871	77.6934
923.764	9.83398
926.657	114.525
929.55	57.9346
932.442	46.0371
935.335	6.98144
938.228	30.6777
941.12	3.91309
944.013	31.3604
946.906	16.8682
949.798	52.5732
952.691	91.6045
955.584	22.3184
958.477	47.6807
961.369	68.1455
964.262	86.8477
967.155	153.429
970.047	301.751
972.94	406.795
975.833	677.547
978.726	1034.76
981.618	1413.19
984.511	1782.02
987.404	1909.74
990.296	1966.41
993.189	1755.31
996.082	1110.4
998.974	647.894
1001.87	457.738
1004.76	313.735
1007.65	201.749
1010.54	182.226
1013.44	148.97
1016.33	159.297
1019.22	116.253
1022.12	99.0508
1025.01	134.084
1027.9	161.592
1030.79	110.644
1033.69	98.6621
1036.58	120.732
1039.47	75.8252
1042.37	69.459
1045.26	75.8428
1048.15	59.2617
1051.04	135.592
1053.94	134.966
1056.83	127.936
1059.72	76.458
1062.61	2.30371
1065.51	28.9824
1068.4	38.6094
1071.29	50.1562
1074.18	67.4326
1077.08	6.60449
1079.97	84.1797
1082.86	73.7656
1085.76	105.199
1088.65	101.332
1091.54	64.0889
1094.43	186.962
1097.33	88.0469
1100.22	222.247
1103.11	185.62
1106	224.639
1108.9	145.995
1111.79	177.961
1114.68	141.084
1117.58	152.644
1120.47	116.732
1123.36	73.2188
1126.25	110.17
1129.15	193.227
1132.04	167.581
1134.93	110.21
1137.82	104.548
1140.72	116.274
1143.61	100.199
1146.5	39.8516
1149.39	34.0537
1152.29	78.4707
1155.18	120.93
1158.07	93.8242
1160.97	119.807
1163.86	89.4775
1166.75	18.4678
1169.64	66.6699
1172.54	2.04297
1175.43	90.5098
1178.32	19.9316
1181.21	81.5684
1184.11	116.66
1187	71.3125
1189.89	59.8203
1192.79	29.4854
1195.68	76.5488
1198.57	78.7031
1201.46	24.833
1204.36	107.585
1207.25	41.2266
1210.14	50.7002
1213.03	61.9209
1215.93	87.459
1218.82	35.1348
1221.71	63.4551
1224.61	121.945
1227.5	6.58398
1230.39	22.834
1233.28	106.438
1236.18	72.6856
1239.07	90.9053
1241.96	79.1406
1244.85	103.753
1247.75	109.823
1250.64	52.3897
1253.53	46.1299
1256.42	37.2197
1259.32	9.92676
1262.21	31.085
1265.1	55.7422
1267.99	7.91797
1270.89	143.28
1273.78	113.389
1276.67	61.9004
1279.57	57.1621
1282.46	121.171
1285.35	92.8525
1288.24	105.443
1291.14	97.709
1294.03	91.5957
1296.92	62.4609
1299.82	37.7227
