Measurement: Raman, 785 nm, unoriented, Raman Data Processed
Mineral: Orthoserpierite
Rruff sample: R060977
Ideal chemistry: CaCu^2+^_4_(S^6+^O_4_)_2_(OH)_6_3H_2_O
Locality: Copper Creek, Galuiro Mountains, Pinal County, Arizona, USA
Source: Michael Scott
Description: Blue-green platy crystals in masses with chrysocolla
Raman shift (cm-1)	intensity
112.85	0
115.743	13.7729
118.635	34.2641
121.528	20.2608
124.421	24.1613
127.314	117.34
130.206	280.358
133.099	360.285
135.992	191.688
138.884	81.0725
141.777	82.7447
144.67	112.674
147.562	156.138
150.455	176.599
153.348	106.558
156.24	113.652
159.133	116.402
162.026	106.325
164.918	108.544
167.811	73.1466
170.704	62.3986
173.597	53.1923
176.489	29.0305
179.382	20.7397
182.275	0.894531
185.167	11.563
188.06	20.5143
190.953	16.138
193.845	15.2154
196.738	14.2259
199.631	9.26707
202.524	38.2606
205.416	21.3582
208.309	13.1649
211.202	0.527802
214.094	10.8488
216.987	32.3
219.88	17.789
222.773	22.2093
225.665	23.2067
228.558	8.14796
231.451	25.1197
234.343	10.8937
237.236	22.749
240.129	14.7005
243.021	18.723
245.914	27.4684
248.807	5.74518
251.7	18.29
254.592	17.4683
257.485	7.61966
260.378	7.45051
263.27	15.037
266.163	12.8177
269.056	16.7593
271.948	1.98513
274.841	16.47
277.734	13.455
280.627	2.52685
283.519	20.2604
286.412	10.0419
289.305	19.7914
292.197	0.881683
295.09	4.3662
297.983	16.7699
300.875	11.0841
303.768	14.354
306.661	3.99681
309.553	12.1919
312.446	28.5752
315.339	29.9028
318.231	15.1782
321.124	11.0653
324.017	29.7623
326.91	14.4548
329.802	13.7928
332.695	17.272
335.588	13.9108
338.48	24.7014
341.373	4.70413
344.266	2.11802
347.159	10.3527
350.051	10.0124
352.944	26.9891
355.837	2.36185
358.729	18.9485
361.622	0.072319
364.515	11.7588
367.407	9.15013
370.3	26.3972
373.193	10.2032
376.086	10.3692
378.978	7.8932
381.871	0.591473
384.764	3.3885
387.656	0.109028
390.549	3.75517
393.442	15.8391
396.334	2.08629
399.227	0.319725
402.12	20.3527
405.012	38.1681
407.905	23.1618
410.798	50.1662
413.691	25.6454
416.583	24.8629
419.476	15.2986
422.369	37.2375
425.261	69.3283
428.154	35.2973
431.047	17.6069
433.94	21.6506
436.832	29.6516
439.725	39.535
442.618	25.2897
445.51	47.3669
448.403	46.0692
451.296	30.6323
454.188	40.055
457.081	18.4796
459.974	0.749485
462.866	38.1128
465.759	25.0942
468.652	29.6411
471.545	24.6912
474.437	22.4733
477.33	19.8815
480.223	13.2869
483.115	16.8802
486.008	23.232
488.901	8.60728
491.793	37.0183
494.686	20.7748
497.579	18.4174
500.471	11.0592
503.364	1.43271
506.257	18.6536
509.15	9.29697
512.042	22.3369
514.935	21.0129
517.828	19.0923
520.72	12.8174
523.613	9.00116
526.506	2.04755
529.399	8.69
532.291	10.0887
535.184	16.7993
538.077	15.0451
540.969	14.0841
543.862	6.39015
546.755	15.8808
549.647	6.60729
552.54	13.9454
555.433	6.40387
558.326	1.45458
561.218	17.5466
564.111	11.4174
567.004	8.38434
569.896	22.5673
572.789	4.98828
575.682	3.72063
578.574	19.7541
581.467	14.6532
584.36	20.4097
587.252	31.2709
590.145	26.624
593.038	13.4944
595.931	13.6561
598.823	29.0216
601.716	6.93713
604.609	26.2518
607.501	14.6652
610.394	32.4894
613.287	35.3711
616.179	30.2328
619.072	34.3441
621.965	11.6328
624.857	9.85876
627.75	37.4118
630.643	16.5519
633.536	20.9291
636.428	11.2383
639.321	13.8219
642.214	16.9272
645.106	21.9703
647.999	28.1534
650.892	24.9778
653.784	20.6751
656.677	27.0125
659.57	20.5252
662.463	32.4575
665.355	25.4274
668.248	3.93755
671.141	22.5866
674.033	9.54094
676.926	8.47321
679.819	20.3474
682.712	2.68383
685.604	20.1956
688.497	10.8759
691.39	9.42729
694.282	32.6176
697.175	21.8119
700.068	36.6263
702.96	12.8923
705.853	10.4891
708.746	24.6424
711.639	19.4474
714.531	13.781
717.424	9.65633
720.317	24.9772
723.209	25.4753
726.102	16.2956
728.995	31.3248
731.887	5.23798
734.78	37.5692
737.673	9.35576
740.566	34.5386
743.458	15.5774
746.351	12.4391
749.244	27.2303
752.136	8.82383
755.029	37.82
757.922	30.3262
760.814	32.1813
763.707	35.251
766.6	13.0229
769.492	11.074
772.385	27.6684
775.278	24.3854
778.17	22.0783
781.063	22.1824
783.956	18.8467
786.849	22.5111
789.741	20.9377
792.634	14.652
795.527	25.4048
798.419	30.6784
801.312	2.85527
804.205	27.6709
807.097	25.3494
809.99	34.6525
812.883	9.99061
815.776	5.56583
818.668	24.9021
821.561	32.5498
824.454	5.38488
827.346	26.7399
830.239	56.0901
833.132	17.7099
836.024	34.4467
838.917	1.31002
841.81	17.7921
844.703	24.7886
847.595	17.4735
850.488	19.3447
853.381	13.7132
856.273	29.5301
859.166	0.792408
862.059	5.40003
864.952	18.3335
867.844	9.25337
870.737	13.0639
873.63	26.5477
876.522	22.0491
879.415	25.245
882.308	17.4832
885.2	33.6816
888.093	11.1303
890.986	15.8327
893.879	44.0785
896.771	4.44439
899.664	1.69454
902.557	14.4606
905.449	22.4331
908.342	7.55296
911.235	28.6586
914.127	18.7671
917.02	5.7602
919.913	26.8779
922.806	5.36123
925.698	1.32605
928.591	5.875
931.484	14.3121
934.376	31.2463
937.269	21.1374
940.162	9.15666
943.054	3.562
945.947	2.90122
948.84	9.3203
951.732	26.1251
954.625	4.86011
957.518	19.2413
960.41	2.02111
963.303	3.51546
966.196	29.0448
969.089	27.5922
971.981	25.7296
974.874	21.4457
977.767	39.6887
980.659	86.2242
983.552	95.3799
986.445	178.948
989.337	203.559
992.23	173.285
995.123	107.956
998.016	81.9916
1000.91	37.2811
1003.8	6.35256
1006.69	15.7225
1009.59	28.9998
1012.48	3.97589
1015.37	12.1065
1018.26	3.82559
1021.16	11.0901
1024.05	2.88553
1026.94	12.7429
1029.84	16.0086
1032.73	1.49161
1035.62	14.0348
1038.51	17.4893
1041.41	24.9365
1044.3	5.66652
1047.19	1.44379
1050.08	23.7022
1052.98	13.6039
1055.87	5.07481
1058.76	18.691
1061.65	6.86856
1064.55	27.0709
1067.44	30.1664
1070.33	10.3716
1073.23	11.0835
1076.12	4.12191
1079.01	17.621
1081.9	18.2831
1084.8	28.2124
1087.69	20.7208
1090.58	19.4548
1093.47	7.94235
1096.37	20.2167
1099.26	25.9287
1102.15	10.5777
1105.05	18.1458
1107.94	15.1576
1110.83	6.52563
1113.72	20.6922
1116.62	13.0364
1119.51	9.8096
1122.4	35.657
1125.29	38.8891
1128.19	36.2472
1131.08	34.3988
1133.97	29.6615
1136.87	42.3683
1139.76	32.195
1142.65	11.2849
1145.54	33.6975
1148.44	13.7705
1151.33	10.2886
1154.22	15.9084
1157.11	15.0679
1160.01	36.0956
1162.9	12.1917
1165.79	9.75934
1168.68	19.925
1171.58	17.2427
1174.47	14.6169
1177.36	31.5103
1180.26	5.57282
1183.15	15.9646
1186.04	38.8771
1188.93	8.03513
1191.83	20.6505
1194.72	15.5618
1197.61	22.3038
1200.51	18.7816
1203.4	0.20236
1206.29	5.13604
1209.18	6.43017
1212.08	21.5825
1214.97	22.5124
1217.86	30.2023
1220.75	16.3255
1223.65	25.6815
1226.54	1.03684
1229.43	17.4431
1232.32	34.2227
1235.22	5.28794
1238.11	22.0146
1241	8.89361
1243.89	40.0803
1246.79	33.403
1249.68	32.8391
1252.57	24.6828
1255.47	13.3701
1258.36	9.31584
1261.25	8.52156
