Measurement: Raman, 780 nm, unoriented, Raman Data Processed
Mineral: Orthoclase
Rruff sample: R050185
Ideal chemistry: KAlSi_3_O_8_
Locality: Silica Bell Property, west of Hope, British Columbia, Canada
Source: Bob Downs
Description: Cluster of white wedge-shaped crystals, variety adularia
Measured chemistry: (K_0.96_Na_0.04_)Al_1.00_Si_3.00_O_8_
Raman shift (cm-1)	intensity
131.053	0
133.946	4.3986
136.838	14.3049
139.731	20.325
142.624	22.3212
145.517	28.3804
148.409	37.7325
151.302	47.3091
154.195	51.9459
157.087	46.2743
159.98	34.7217
162.873	19.2782
165.765	10.2728
168.658	6.52822
171.551	6.01109
174.444	5.56665
177.336	4.67625
180.229	2.73022
183.122	0.078667
186.014	1.18353
188.907	0.106178
191.8	1.13565
194.692	2.14701
197.585	1.67649
200.478	0.100517
203.37	1.82194
206.263	0.633995
209.156	0.06604
212.049	0.784744
214.941	1.62513
217.834	1.06447
220.727	3.29816
223.619	3.65559
226.512	3.54781
229.405	4.72098
232.298	6.22422
235.19	7.87862
238.083	8.32295
240.976	10.0914
243.868	10.2093
246.761	13.9363
249.654	15.9044
252.546	18.7701
255.439	24.0274
258.332	29.2362
261.224	31.9874
264.117	36.0805
267.01	39.335
269.903	42.3152
272.795	46.298
275.688	47.6262
278.581	49.6654
281.473	46.2671
284.366	35.9404
287.259	25.6633
290.151	16.5939
293.044	10.9503
295.937	7.00781
298.83	5.11991
301.722	3.57028
304.615	1.94218
307.508	1.40331
310.4	0.701149
313.293	0.547112
316.186	0.947159
319.079	0.64109
321.971	0.805946
324.864	0.757408
327.757	1.21266
330.649	1.12236
333.542	0.7295
336.435	0.208328
339.327	0.037697
342.22	0.944138
345.113	0.153656
348.005	0.781212
350.898	0.292778
353.791	1.23907
356.683	0.918839
359.576	1.26085
362.469	1.41225
365.362	0.139969
368.254	0.687706
371.147	2.06336
374.04	0.492783
376.932	0.706177
379.825	0.171707
382.718	0.552063
385.611	0.695541
388.503	0.133774
391.396	1.05537
394.289	0.606873
397.181	1.87532
400.074	1.34488
402.967	1.39734
405.859	1.09167
408.752	0.557159
411.645	0.412109
414.538	0.34935
417.43	1.16658
420.323	0.271118
423.216	0.599548
426.108	0.088989
429.001	1.67779
431.894	0.731415
434.786	2.9166
437.679	4.35426
440.572	5.05716
443.464	8.50647
446.357	8.97745
449.25	12.0145
452.143	12.9805
455.035	13.3833
457.928	14.079
460.821	15.4865
463.713	16.5683
466.606	19.8733
469.499	21.745
472.392	23.3227
475.284	22.4718
478.177	16.2372
481.07	13.1953
483.962	11.4369
486.855	11.5934
489.748	13.3744
492.64	19.0255
495.533	30.267
498.426	38.5584
501.318	48.6228
504.211	60.5819
507.104	74.1891
509.997	85.7775
512.889	76.8176
515.782	51.703
518.675	29.8254
521.567	17.1221
524.46	10.3894
527.353	7.07408
530.245	3.6738
533.138	2.61507
536.031	1.23338
538.924	0.658585
541.816	1.15225
544.709	0.568375
547.602	0.110977
550.494	0.408508
553.387	1.02994
556.28	0.168213
559.173	0.385574
562.065	0.512909
564.958	0.27504
567.851	0.990982
570.743	1.01598
573.636	1.43724
576.529	1.18967
579.421	1.73535
582.314	1.29968
585.207	2.19241
588.099	2.09219
590.992	0.317505
593.885	1.93057
596.778	1.13213
599.67	1.34593
602.563	1.33266
605.456	1.31868
608.348	1.23737
611.241	1.51933
614.134	0.303894
617.026	2.10583
619.919	1.61174
622.812	2.20912
625.705	2.0925
628.597	1.43915
631.49	1.86768
634.383	0.97525
637.275	0.965729
640.168	1.63474
643.061	1.23776
645.953	1.68326
648.846	0.042023
651.739	2.38391
654.631	1.69278
657.524	1.39438
660.417	1.44852
663.31	1.54282
666.202	1.02264
669.095	2.15161
671.988	1.27792
674.88	0.65506
677.773	1.78482
680.666	0.837555
683.558	1.05368
686.451	0.228058
689.344	0.388092
692.237	0.748322
695.129	1.82617
698.022	1.28766
700.915	0.303741
703.807	0.45282
706.7	0.46048
709.593	1.08194
712.486	1.92914
715.378	0.017517
718.271	0.386475
721.164	1.41684
724.056	2.89984
726.949	1.88602
729.842	2.36499
732.734	0.839691
735.627	3.49951
738.52	2.16196
741.413	2.45294
744.305	4.12103
747.198	2.9892
750.091	3.12662
752.983	1.87097
755.876	2.21942
758.769	1.9259
761.661	2.92542
764.554	1.57596
767.447	0.87973
770.34	0.338654
773.232	1.58887
776.125	0.030762
779.018	2.47095
781.91	2.69138
784.803	1.38608
787.696	1.39859
790.588	2.7175
793.481	3.94739
796.374	3.47348
799.266	3.80109
802.159	2.93503
805.052	3.57211
807.945	6.19376
810.837	4.45593
813.73	3.9299
816.623	1.69827
819.515	2.31937
822.408	0.027283
825.301	0.632629
828.193	0.23938
831.086	2.09656
833.979	0.45285
836.872	1.94159
839.764	2.46292
842.657	1.76312
845.55	1.40158
848.442	1.25613
851.335	0.338196
854.228	2.27148
857.12	1.66348
860.013	3.98038
862.906	4.33044
865.799	3.39343
868.691	2.62903
871.584	3.23666
874.477	1.39679
877.369	1.26798
880.262	1.37573
883.155	1.56213
886.047	2.7161
888.94	2.37903
891.833	1.73999
894.726	2.65195
897.618	0.963989
900.511	2.46329
903.404	0.965515
906.296	1.71405
909.189	1.31085
912.082	0.808624
914.974	1.6145
917.867	0.747101
920.76	3.59909
923.653	2.89899
926.545	0.231018
929.438	2.30173
932.331	1.86554
935.223	3.2677
938.116	1.14056
941.009	2.2897
943.901	3.6261
946.794	4.21057
949.687	2.0517
952.58	3.81198
955.472	3.04651
958.365	2.42038
961.258	2.98724
964.15	0.325317
967.043	0.369934
969.936	1.59454
972.828	0.719727
975.721	2.68854
978.614	2.29279
981.506	0.546753
984.399	2.03674
987.292	0.246155
990.185	1.41467
993.077	3.46857
995.97	1.26862
998.863	1.05115
1001.75	2.80005
1004.65	2.85077
1007.54	1.80493
1010.43	3.82233
1013.33	1.04535
1016.22	3.54175
1019.11	2.67676
1022	3.23041
1024.9	0.898743
1027.79	4.53064
1030.68	1.11401
1033.58	1.03308
1036.47	0.980652
1039.36	4.85394
1042.25	0.827454
1045.15	1.39966
1048.04	2.65546
1050.93	2.89136
1053.82	0.514832
1056.72	2.42932
1059.61	0.519531
1062.5	2.37634
1065.39	1.45135
1068.29	0.804504
1071.18	1.72339
1074.07	1.71265
1076.97	2.59387
1079.86	0.117615
1082.75	1.25867
1085.64	1.96314
1088.54	0.879456
1091.43	2.15503
1094.32	1.50763
1097.21	0.666321
1100.11	0.459534
1103	1.59662
1105.89	0.839355
1108.79	2.93237
1111.68	1.79748
1114.57	1.45258
1117.46	3.04144
1120.36	3.02026
1123.25	3.2934
1126.14	4.56097
1129.03	1.61908
1131.93	3.32117
1134.82	2.42127
1137.71	2.52685
1140.61	4.18298
1143.5	3.4378
1146.39	2.5426
1149.28	3.83154
1152.18	2.39123
1155.07	2.01709
1157.96	1.44922
1160.85	3.26709
1163.75	4.35223
1166.64	1.92175
1169.53	3.92523
1172.42	4.35156
1175.32	4.67474
1178.21	3.85626
1181.1	4.07959
1183.99	7.78912
1186.89	3.83307
1189.78	5.46246
1192.67	6.95837
1195.57	4.98224
1198.46	6.672
1201.35	6.01044
1204.24	7.20221
1207.14	6.5404
1210.03	4.85846
1212.92	3.81793
1215.82	3.85553
1218.71	2.70062
1221.6	1.04382
1224.49	0.073792
1227.39	1.65991
1230.28	2.27783
1233.17	0.393188
1236.06	2.82275
1238.96	3.80627
1241.85	2.04718
1244.74	1.73987
1247.63	2.54272
1250.53	1.57129
1253.42	2.6889
1256.31	3.02978
1259.21	2.77063
1262.1	2.12769
1264.99	2.44476
1267.88	1.38513
1270.78	1.01544
1273.67	1.00879
1276.56	0.267944
1279.45	1.61145
1282.35	1.70074
1285.24	0.987122
