Measurement: Raman, 780 nm, unoriented, Raman Data Processed
Mineral: Osarizawaite
Rruff sample: R060401
Ideal chemistry: Cu^2+^Pb^2+^Al_2_(S^6+^O_4_)_2_(OH)_6_
Locality: Akita Prefecture, Japan
Source: American Museum of Natural History
Description: Yellowish-green granular mass
Raman shift (cm-1)	intensity
101.212	0
104.587	12.1353
107.962	0.772949
111.337	8.25861
114.711	9.82388
118.086	8.92966
121.461	19.4401
124.836	25.4126
128.21	36.4273
131.585	31.7627
134.96	42.6989
138.335	48.8421
141.71	34.4646
145.085	46.487
148.459	54.8767
151.834	47.2196
155.209	45.3012
158.584	40.4054
161.959	39.3225
165.333	18.7564
168.708	14.2907
172.083	12.9083
175.458	4.0544
178.833	5.66322
182.208	2.49191
185.582	1.66159
188.957	4.83388
192.332	13.8894
195.707	17.422
199.082	19.1865
202.457	31.9386
205.831	26.0202
209.206	26.35
212.581	29.7105
215.956	28.0172
219.331	22.2773
222.705	20.1157
226.08	18.0821
229.455	15.935
232.83	16.1052
236.205	14.5726
239.579	11.6353
242.954	10.2431
246.329	10.3379
249.704	8.02712
253.079	10.073
256.454	0.656021
259.828	2.53651
263.203	3.99051
266.578	4.51218
269.953	8.3804
273.328	0.944748
276.702	7.07806
280.077	6.61618
283.452	11.1109
286.827	6.00871
290.202	3.26488
293.576	2.54016
296.951	5.75087
300.326	11.4515
303.701	7.62395
307.076	6.53018
310.45	3.5562
313.825	14.4085
317.2	5.84014
320.575	5.27062
323.95	6.60303
327.325	8.53017
330.699	6.66407
334.074	8.49043
337.449	15.5693
340.824	11.4929
344.199	8.33855
347.574	12.0734
350.948	6.39656
354.323	8.41797
357.698	8.79028
361.073	0.571327
364.447	4.77053
367.822	7.20355
371.197	13.3775
374.572	4.36398
377.947	8.97594
381.322	2.80753
384.696	5.70222
388.071	9.6893
391.446	6.3966
394.821	4.57207
398.196	2.607
401.57	3.3578
404.945	7.15377
408.32	2.46135
411.695	4.19176
415.07	14.0463
418.445	16.2803
421.819	22.2731
425.194	25.618
428.569	33.9574
431.944	44.6359
435.319	51.6187
438.693	67.3382
442.068	73.9904
445.443	76.5658
448.818	70.7466
452.193	68.9751
455.567	64.974
458.942	66.7562
462.317	51.8894
465.692	50.148
469.067	55.8865
472.442	47.6726
475.816	52.6465
479.191	51.7128
482.566	47.88
485.941	48.2161
489.316	41.1743
492.69	37.8349
496.065	30.3626
499.44	24.9727
502.815	9.71321
506.19	11.7289
509.565	3.54176
512.939	7.20165
516.314	6.1038
519.689	0.646965
523.064	0.639259
526.439	0.061241
529.813	1.06177
533.188	2.86427
536.563	2.35756
539.938	4.94188
543.313	3.58299
546.688	2.73022
550.062	6.19538
553.437	8.04789
556.812	3.24679
560.187	2.92287
563.562	5.54453
566.936	9.42216
570.311	13.0393
573.686	5.94984
577.061	5.74267
580.436	2.97308
583.811	5.11543
587.185	9.00432
590.56	7.51029
593.935	12.4576
597.31	8.85503
600.685	17.4966
604.059	22.9114
607.434	16.9961
610.809	25.2467
614.184	29.28
617.559	31.5538
620.933	42.279
624.308	45.3574
627.683	46.904
631.058	48.9059
634.433	41.4882
637.808	37.5271
641.182	27.4464
644.557	22.9467
647.932	24.3974
651.307	20.8931
654.682	14.8386
658.056	8.73521
661.431	9.75748
664.806	2.17128
668.181	1.80946
671.556	4.09111
674.931	1.31443
678.305	2.90327
681.68	1.72186
685.055	5.76813
688.43	10.4256
691.805	4.59816
695.179	7.70406
698.554	4.27682
701.929	8.16081
705.304	5.754
708.679	6.78656
712.053	4.78577
715.428	4.624
718.803	6.06845
722.178	7.42889
725.553	5.47307
728.928	8.22899
732.302	4.7084
735.677	4.34905
739.052	1.58076
742.427	8.46672
745.802	0.849564
749.176	5.64635
752.551	1.92454
755.926	6.21797
759.301	3.15885
762.676	1.91884
766.051	7.71213
769.425	2.07114
772.8	2.73925
776.175	5.72034
779.55	8.64785
782.925	8.03976
786.299	8.86714
789.674	10.2833
793.049	7.86711
796.424	1.90332
799.799	8.06522
803.173	8.35855
806.548	6.13059
809.923	1.87613
813.298	2.73926
816.673	8.80576
820.048	7.51888
823.422	5.42406
826.797	7.29491
830.172	3.19011
833.547	5.03683
836.922	6.14834
840.296	3.74377
843.671	3.20029
847.046	9.04858
850.421	12.32
853.796	11.5857
857.17	12.9388
860.545	8.63246
863.92	11.853
867.295	7.89661
870.67	7.44222
874.044	5.26635
877.419	5.18847
880.794	7.17134
884.169	1.82183
887.544	6.68691
890.919	6.24028
894.293	5.0248
897.668	-0.617765
901.043	1.78807
904.418	-1.15526
907.793	6.50565
911.168	3.79488
914.542	6.67905
917.917	4.28607
921.292	3.47748
924.667	5.05601
928.042	3.57066
931.416	3.43707
934.791	1.54829
938.166	1.95755
941.541	1.85088
944.916	0.039597
948.29	8.77178
951.665	2.10766
955.04	8.85164
958.415	11.2307
961.79	13.9672
965.164	6.75816
968.539	14.129
971.914	14.2807
975.289	22.1244
978.664	24.9275
982.039	40.739
985.413	52.6462
988.788	69.0682
992.163	74.3269
995.538	80.7804
998.913	94.9246
1002.29	102.668
1005.66	112.02
1009.04	106.319
1012.41	102.664
1015.79	88.7508
1019.16	68.5864
1022.54	42.918
1025.91	33.4943
1029.29	25.8024
1032.66	12.0304
1036.04	10.8349
1039.41	16.7628
1042.79	13.6923
1046.16	10.6636
1049.54	15.8669
1052.91	17.2124
1056.29	12.2578
1059.66	10.9072
1063.03	7.07166
1066.41	9.00043
1069.78	2.80411
1073.16	4.37962
1076.53	2.33756
1079.91	1.73778
1083.28	5.26667
1086.66	4.87901
1090.03	3.8904
1093.41	1.56903
1096.78	2.69126
1100.16	4.94434
1103.53	3.04543
1106.91	2.64794
1110.28	6.04877
1113.66	1.96852
1117.03	7.83804
1120.41	4.22042
1123.78	5.23204
1127.16	3.96808
1130.53	5.47723
1133.9	9.71068
1137.28	4.25147
1140.65	10.8592
1144.03	9.25139
1147.4	9.35407
1150.78	5.93588
1154.15	0.618309
1157.53	0.643982
1160.9	5.36599
1164.28	6.00123
1167.65	14.7013
1171.03	4.66975
1174.4	0.098137
1177.78	4.06084
1181.15	3.45054
1184.53	8.13539
1187.9	7.85722
1191.28	1.54629
1194.65	5.96345
1198.03	8.00501
1201.4	7.27132
1204.78	3.66118
1208.15	0.907944
1211.53	5.28355
1214.9	1.31425
1218.28	2.75462
1221.65	0.758018
1225.03	2.54445
1228.4	8.49491
1231.78	7.98229
1235.15	4.80696
1238.53	6.17122
1241.9	1.10783
1245.27	3.76312
1248.65	9.34943
1252.02	3.59943
1255.4	6.63137
1258.77	11.172
1262.15	3.61969
1265.52	5.17631
1268.9	5.59532
1272.27	8.69192
1275.65	0.650444
1279.02	2.25366
1282.4	0.412605
