Measurement: Raman, 532 nm, unoriented, Raman Data Processed
Mineral: Osmium
Rruff sample: R080088
Ideal chemistry: Os
Locality: Goodnews Bay, Bethel Borough, Alaska, USA
Source: Michael Scott
Description: Navy blue, fine powder
Raman shift (cm-1)	intensity
126.584	0
129.959	1.70059
133.333	2.22149
136.708	1.32571
140.083	3.64498
143.458	1.94565
146.833	5.638
150.208	5.40686
153.582	6.3409
156.957	9.00053
160.332	16.8053
163.707	20.1755
167.082	5.86861
170.456	2.10682
173.831	1.91825
177.206	1.23335
180.581	0.720805
183.956	0.609447
187.331	0.877449
190.705	1.0928
194.08	0.747863
197.455	0.756438
200.83	1.07973
204.205	0.116156
207.579	0.435543
210.954	0.152824
214.329	0.287573
217.704	0.075928
221.079	0.340117
224.453	1.0081
227.828	0.248405
231.203	0.268315
234.578	0.251205
237.953	0.48938
241.328	0.305406
244.702	0.459644
248.077	0.702099
251.452	2.01462
254.827	0.709505
258.202	0.621146
261.577	1.25972
264.951	0.716011
268.326	0.485821
271.701	1.68746
275.076	0.513013
278.451	0.67072
281.825	0.603408
285.2	1.19067
288.575	0.367124
291.95	0.598581
295.325	1.05503
298.7	0.14659
302.074	0.684646
305.449	0.639752
308.824	1.08325
312.199	0.340411
315.574	1.15426
318.948	2.02529
322.323	0.465528
325.698	0.961357
329.073	0.492546
332.448	1.38246
335.822	1.47996
339.197	0.703901
342.572	1.91149
345.947	2.17436
349.322	1.61713
352.697	1.92189
356.071	1.17923
359.446	1.84179
362.821	2.05676
366.196	1.62458
369.571	1.33972
372.945	0.53496
376.32	0.388272
379.695	0.141115
383.07	0.68161
386.445	0.902381
389.82	1.09033
393.194	0.532995
396.569	1.77407
399.944	1.02387
403.319	1.64224
406.694	1.74853
410.068	1.5093
413.443	2.08662
416.818	2.26911
420.193	2.91945
423.568	2.48516
426.942	2.06135
430.317	1.24519
433.692	0.833472
437.067	0.328582
440.442	0.923916
443.817	0.167884
447.191	0.413324
450.566	0.18529
453.941	0.285994
457.316	0.738277
460.691	1.42673
464.065	0.10524
467.44	0.690256
470.815	0.84598
474.19	0.33402
477.565	1.12339
480.94	0.366364
484.314	1.72144
487.689	0.164907
491.064	0.572878
494.439	1.23854
497.814	0.379984
501.188	1.28967
504.563	0.96032
507.938	1.69738
511.313	1.49892
514.688	0.632591
518.063	0.177052
521.437	0.565031
524.812	1.15786
528.187	1.00741
531.562	1.23645
534.937	1.33051
538.312	0.740483
541.686	0.330705
545.061	0.353954
548.436	0.606558
551.811	0.576186
555.186	0.832033
558.56	0.968627
561.935	0.382297
565.31	1.25501
568.685	0.552657
572.06	0.344576
575.434	0.806561
578.809	0.210087
582.184	0.496077
585.559	0.079501
588.934	1.01669
592.308	0.458239
595.683	0.390324
599.058	0.992931
602.433	0.430299
605.808	0.548906
609.183	0.3893
612.557	0.323112
615.932	0.359196
619.307	0.753849
622.682	0.284475
626.057	0.534188
629.432	0.007736
632.806	1.01917
636.181	0.634799
639.556	0.369483
642.931	0.407622
646.306	0.437083
649.68	0.272469
653.055	0.528838
656.43	0.706037
659.805	1.43843
663.18	1.26606
666.554	1.37045
669.929	0.858307
673.304	0.40217
676.679	0.54928
680.054	0.215939
683.428	0.572262
686.803	0.708694
690.178	0.750639
693.553	1.0494
696.928	0.289958
700.303	0.661408
703.677	0.343441
707.052	0.243407
710.427	0.82725
713.802	0.352635
717.177	0.959364
720.552	1.03892
723.926	0.591465
727.301	0.969961
730.676	1.32577
734.051	0.060922
737.426	1.27402
740.8	0.974483
744.175	0.367204
747.55	0.279109
750.925	0.096123
754.3	0.055516
757.674	0.73392
761.049	0.759015
764.424	0.917633
767.799	0.712405
771.174	0.044456
774.549	1.03785
777.923	0.610907
781.298	0.699504
784.673	0.45284
788.048	0.533862
791.423	0.189166
794.798	0.767573
798.172	0.393305
801.547	0.575763
804.922	1.04329
808.297	0.901639
811.672	0.545264
815.046	0.232773
818.421	0.913395
821.796	1.27512
825.171	0.429246
828.546	0.050967
831.92	1.76086
835.295	0.980762
838.67	0.55525
842.045	0.696453
845.42	0.80303
848.795	0.942789
852.169	0.888263
855.544	1.28852
858.919	1.53753
862.294	0.465492
865.669	1.46275
869.043	0.433046
872.418	1.20196
875.793	0.475632
879.168	1.01494
882.543	0.884813
885.918	0.492146
889.292	1.02123
892.667	0.848394
896.042	0.698001
899.417	0.414752
902.792	0.612492
906.166	0.235842
909.541	0.384681
912.916	0.038972
916.291	0.701315
919.666	0.552423
923.04	0.15806
926.415	0.311726
929.79	0.973189
933.165	1.15443
936.54	0.480912
939.915	0.086586
943.289	0.46838
946.664	0.339456
950.039	0.557457
953.414	0.235013
956.789	0.967079
960.163	0.493839
963.538	0.554846
966.913	0.541231
970.288	1.0321
973.663	0.596375
977.038	1.48181
980.412	0.058144
983.787	1.38679
987.162	0.264699
990.537	0.048821
993.912	0.720476
997.287	0.619667
1000.66	1.05444
1004.04	1.08032
1007.41	0.273826
1010.79	0.802992
1014.16	1.2681
1017.53	0.438776
1020.91	0.578194
1024.29	0.821702
1027.66	1.05471
1031.04	0.828844
1034.41	1.27266
1037.78	0.929275
1041.16	0.463182
1044.53	0.940625
1047.91	0.322896
1051.28	0.801836
1054.66	0.278718
1058.03	1.14403
1061.41	1.10125
1064.78	0.173082
1068.16	0.291748
1071.53	0.821069
1074.91	0.671053
1078.28	0.692617
1081.66	0.616026
1085.03	0.247584
1088.41	0.667147
1091.78	0.228342
1095.16	0.05544
1098.53	0.213379
1101.91	0.343577
1105.28	0.152876
1108.65	0.197198
1112.03	0.714129
1115.4	0.269877
1118.78	0.578469
1122.15	0.264792
1125.53	1.06582
1128.9	0.600311
1132.28	0.678964
1135.65	0.4651
1139.03	1.15042
1142.4	0.750387
1145.78	0.136926
1149.15	0.901952
1152.53	0.593007
1155.9	1.14461
1159.28	0.497505
1162.65	0.536574
1166.03	0.697214
1169.4	0.336936
1172.78	0.068525
1176.15	0.469764
1179.53	0.366003
1182.9	1.0188
1186.28	0.587442
1189.65	0.709421
1193.03	0.770807
1196.4	0.927435
1199.78	0.466078
1203.15	1.09889
1206.53	0.885437
1209.9	1.11225
1213.28	0.519078
1216.65	0.482307
1220.02	0.651136
1223.4	0.628918
1226.77	1.01299
1230.15	0.713508
1233.52	0.926583
1236.9	0.658575
1240.27	0.581616
1243.65	0.406279
1247.02	1.36119
1250.4	0.805454
1253.77	0.450721
1257.15	1.02486
1260.52	0.466175
1263.9	1.15198
1267.27	0.993668
1270.65	1.39313
1274.02	0.820257
1277.4	1.3675
1280.77	1.34286
1284.15	0.60182
1287.52	0.709698
1290.9	1.52406
1294.27	1.75362
1297.64	0.678137
1301.02	0.227286
1304.39	0.011327
