Measurement: Raman, 780 nm, unoriented, Raman Data Processed
Mineral: Osumilite
Rruff sample: R060385
Ideal chemistry: KFe^2+^_2_(Al_5_Si_10_)O_30_
Locality: Funtanafigu Quarry, Monte Arci, near Oristano, Sardinia
Source: Michael Scott
Description: Black tabular distorted hexagonal crystals associated with colorless tridymite
Measured chemistry: (K_0.72_Na_0.15_Ca_0.01_)_Σ=0.88_(Fe^2+^_1.07_Mg_0.93_Mn_0.06_)_Σ=2.06_(Al_2.69_Fe^3+^_0.31_)_Σ=3_(Si_10.28_Al_1.72_)_Σ=12_O_30_
Raman shift (cm-1)	intensity
185.582	0
188.475	0.395103
191.368	0.04583
194.261	1.95648
197.153	0.628948
200.046	0.961594
202.939	0.729687
205.831	1.51357
208.724	0.852333
211.617	0.965885
214.509	0.835186
217.402	0.058064
220.295	1.31908
223.188	0.312511
226.08	0.925472
228.973	0.91275
231.866	1.34581
234.758	1.45853
237.651	1.72954
240.544	2.43155
243.436	2.25978
246.329	2.94272
249.222	3.00947
252.114	3.0822
255.007	1.95297
257.9	2.28985
260.793	2.52033
263.685	2.66388
266.578	2.2109
269.471	3.67511
272.363	3.34953
275.256	2.0972
278.149	3.08011
281.041	1.44494
283.934	0.370453
286.827	0.598083
289.719	0.471348
292.612	0.630573
295.505	0.168896
298.398	0.662708
301.29	1.24338
304.183	1.18842
307.076	0.195648
309.968	2.10189
312.861	2.36019
315.754	1.69935
318.647	1.96555
321.539	1.03093
324.432	0.018913
327.325	0.728901
330.217	0.076401
333.11	0.340145
336.003	0.017204
338.895	0.826
341.788	0.477879
344.681	0.68642
347.574	1.08565
350.466	1.31873
353.359	0.995483
356.252	1.92573
359.144	1.20772
362.037	1.79456
364.93	3.60521
367.822	2.61963
370.715	1.82604
373.608	2.61794
376.5	1.98821
379.393	1.89256
382.286	0.99332
385.179	1.37025
388.071	2.23309
390.964	0.490166
393.857	2.28289
396.749	0.017838
399.642	1.33144
402.535	0.756359
405.427	0.996304
408.32	0.937901
411.213	0.993217
414.106	0.503365
416.998	0.147751
419.891	0.648258
422.784	0.795872
425.676	0.518326
428.569	1.67987
431.462	1.74661
434.354	1.77004
437.247	2.02575
440.14	2.02473
443.033	3.47517
445.925	4.35148
448.818	3.12846
451.711	5.39194
454.603	5.42064
457.496	5.76541
460.389	6.28127
463.281	7.33164
466.174	7.39502
469.067	6.17479
471.959	5.72488
474.852	3.91649
477.745	2.45001
480.638	0.877197
483.53	0.746998
486.423	0.491119
489.316	0.456104
492.208	0.09948
495.101	0.455395
497.994	0.639824
500.887	1.91857
503.779	3.03684
506.672	3.41275
509.565	4.88524
512.457	5.79415
515.35	5.73702
518.243	7.81501
521.135	6.68831
524.028	7.90843
526.921	8.00631
529.813	7.32608
532.706	8.37987
535.599	7.15902
538.492	8.35446
541.384	5.40118
544.277	6.78034
547.17	4.74715
550.062	3.72513
552.955	3.69985
555.848	2.21469
558.74	2.44378
561.633	2.01699
564.526	1.51301
567.418	1.62056
570.311	1.859
573.204	0.504059
576.097	0.154173
578.989	0.908192
581.882	0.424677
584.775	0.648834
587.667	0.941311
590.56	0.757193
593.453	0.978546
596.346	1.52169
599.238	2.28787
602.131	2.33016
605.024	2.70464
607.916	3.53856
610.809	3.89985
613.702	3.27082
616.594	3.61454
619.487	3.86713
622.38	4.92554
625.273	3.29187
628.165	2.76608
631.058	2.08743
633.951	3.55481
636.843	1.6727
639.736	2.33903
642.629	0.078714
645.521	1.93514
648.414	0.28825
651.307	1.56921
654.199	0.908022
657.092	0.889626
659.985	0.909264
662.878	0.672268
665.77	1.40608
668.663	1.37813
671.556	1.10932
674.448	0.100397
677.341	1.34805
680.234	1.72174
683.126	1.07704
686.019	0.563128
688.912	1.65985
691.805	0.266348
694.697	0.644251
697.59	0.414207
700.483	0.805592
703.375	1.04335
706.268	0.19828
709.161	0.415281
712.053	0.922001
714.946	0.410505
717.839	0.651838
720.731	1.73551
723.624	0.626955
726.517	0.738762
729.41	0.103045
732.302	1.8966
735.195	0.844099
738.088	0.374899
740.98	1.16119
743.873	1.13051
746.766	1.25616
749.659	0.909065
752.551	0.132689
755.444	1.81635
758.337	1.32842
761.229	0.979065
764.122	2.24685
767.015	1.37039
769.907	1.71767
772.8	2.04459
775.693	1.38732
778.586	1.45938
781.478	1.72624
784.371	1.20783
787.264	1.24075
790.156	1.11977
793.049	1.41718
795.942	0.300232
798.834	0.709745
801.727	1.94647
804.62	0.291353
807.513	0.223524
810.405	0.31341
813.298	1.01804
816.191	1.07444
819.083	1.31323
821.976	0.743601
824.869	0.570585
827.761	1.00829
830.654	0.379887
833.547	0.039265
836.439	0.670023
839.332	0.259272
842.225	1.48787
845.118	1.36057
848.01	1.562
850.903	1.47426
853.796	2.30103
856.688	0.954752
859.581	1.23779
862.474	1.41595
865.366	1.28233
868.259	1.51572
871.152	1.8576
874.044	1.45011
876.937	0.212543
879.83	0.929556
882.723	0.006836
885.615	0.653099
888.508	0.349247
891.401	0.71735
894.293	0.142256
897.186	0.981159
900.079	0.352648
902.971	0.220617
905.864	0.321154
908.757	0.55271
911.65	0.357903
914.542	1.39332
917.435	0.833992
920.328	0.597284
923.22	1.13146
926.113	0.288437
929.006	0.409149
931.899	1.3079
934.791	0.606295
937.684	1.21776
940.577	1.15349
943.469	0.769312
946.362	1.12026
949.255	1.73634
952.147	2.22159
955.04	1.62397
957.933	2.21778
960.825	0.963388
963.718	2.20765
966.611	3.38947
969.504	3.42073
972.396	2.53341
975.289	3.332
978.182	2.29668
981.074	2.52058
983.967	1.40017
986.86	1.94787
989.752	3.11988
992.645	1.64666
995.538	2.30877
998.431	1.40088
1001.32	0.145924
1004.22	0.050508
1007.11	0.551079
1010	1.18111
1012.89	0.204248
1015.79	0.181803
1018.68	0.658161
1021.57	0.576672
1024.46	0.114664
1027.36	0.037302
1030.25	1.4738
1033.14	0.523109
1036.04	0.526604
1038.93	0.654242
1041.82	0.103096
1044.71	1.14791
1047.61	0.628674
1050.5	0.288446
1053.39	0.695267
1056.29	0.189432
1059.18	1.46345
1062.07	1.3315
1064.96	1.49161
1067.86	1.47484
1070.75	1.44516
1073.64	0.452387
1076.53	0.592188
1079.43	0.875498
1082.32	1.17544
1085.21	1.89262
1088.1	0.729763
1091	0.243139
1093.89	1.70662
1096.78	0.054535
1099.67	0.079117
1102.57	0.961744
1105.46	1.59941
1108.35	1.69204
1111.25	1.78144
1114.14	1.75412
1117.03	0.787205
1119.92	1.57813
1122.82	0.810448
1125.71	2.77025
1128.6	1.8156
1131.49	0.522614
1134.39	2.20599
1137.28	1.93897
1140.17	1.65471
1143.07	1.8877
1145.96	2.031
1148.85	1.61554
1151.74	2.44659
1154.64	2.86971
1157.53	2.31384
1160.42	2.63928
1163.31	0.597717
1166.21	2.04914
1169.1	1.69497
1171.99	1.72117
1174.88	0.815069
1177.78	1.48058
1180.67	2.32341
1183.56	1.44945
1186.46	1.33119
1189.35	1.74991
1192.24	0.162046
1195.13	0.960136
1198.03	1.86819
1200.92	0.488453
1203.81	0.563833
1206.7	1.64047
1209.6	0.962559
1212.49	1.15035
1215.38	0.737318
1218.28	0.538576
1221.17	1.50666
1224.06	0.474838
1226.95	0.987127
1229.85	0.147373
1232.74	0.501986
1235.63	1.51302
1238.53	0.985884
1241.42	1.67659
1244.31	1.40942
1247.2	1.24658
1250.1	0.547934
1252.99	0.61199
1255.88	0.126835
1258.77	1.39976
1261.67	0.509909
1264.56	0.691257
1267.45	0.849274
1270.34	1.29927
1273.24	0.778772
1276.13	1.11587
1279.02	0.635727
1281.91	0.329496
1284.81	0
