Measurement: Raman, 532 nm, unoriented, Raman Data Processed
Mineral: Oswaldpeetersite
Rruff sample: R060529
Ideal chemistry: (U^6+^O_2_)_2_CO_3_(OH)_2_4H_2_O
Locality: Jomac mine, San Juan County, Utah, USA
Source: Michael Scott
Description: Divergent sprays of yellow bladed crystals, made up of many sub-parallel smaller crystals. Single crystal X-ray diffraction with a lab source is not possible. Note that the crystals dissolve in acetone
Raman shift (cm-1)	intensity
148.039	0
150.932	191.664
153.825	82.164
156.717	140.602
159.61	669.289
162.503	1526.13
165.396	1806.38
168.288	1887.79
171.181	1693.75
174.074	1529.5
176.966	2138.51
179.859	2483.39
182.752	2708.88
185.645	2856.72
188.537	2876.02
191.43	2855.19
194.323	2881.27
197.215	3306.4
200.108	3894.15
203.001	4788.51
205.893	5608.55
208.786	5665
211.679	4825.34
214.572	4143.05
217.464	3916.18
220.357	3802.84
223.25	3627.97
226.142	3588.3
229.035	3790.03
231.928	4352.53
234.82	4502.69
237.713	4934.25
240.606	5542.34
243.499	6199.19
246.391	5827.71
249.284	4732.6
252.177	3425.7
255.069	2129.6
257.962	1687.84
260.855	1683.3
263.747	1948.54
266.64	2375.61
269.533	2638.88
272.426	2750.64
275.318	3372.3
278.211	3200.48
281.104	2733.63
283.996	2309.28
286.889	1144.07
289.782	831.281
292.674	564.562
295.567	229.977
298.46	45.711
301.352	80.734
304.245	506.07
307.138	898.406
310.03	592.406
312.923	179.18
315.816	159.156
318.709	214.359
321.601	7.484
324.494	134.438
327.387	29.672
330.279	172.852
333.172	86.148
336.065	19.086
338.957	208.633
341.85	70.227
344.743	376.758
347.636	100.984
350.528	467.422
353.421	600.891
356.314	155.898
359.206	12.734
362.099	42.156
364.992	353.445
367.884	26.258
370.777	248.586
373.67	467.805
376.563	719.086
379.455	554.195
382.348	469.188
385.241	753.578
388.133	1063.82
391.026	1484.38
393.919	1489.52
396.811	1499.38
399.704	1343.88
402.597	1687.19
405.49	2023.14
408.382	2206.36
411.275	3129.97
414.168	4667.44
417.06	6880.15
419.953	9556.03
422.846	13994.7
425.738	18737.8
428.631	23153.5
431.524	26470.6
434.417	22265.3
437.309	14428.7
440.202	8020.96
443.095	4865.59
445.987	2953.26
448.88	2100.91
451.773	1599.06
454.665	1130.41
457.558	1269.91
460.451	531.695
463.344	510.734
466.236	621.992
469.129	406.961
472.022	477.281
474.914	407.641
477.807	1.867
480.7	84.062
483.592	335.312
486.485	927.844
489.378	526.234
492.271	148.547
495.163	68.734
498.056	20.32
500.949	36.25
503.841	49.656
506.734	41.43
509.627	136.594
512.519	125.898
515.412	147.32
518.305	661.359
521.198	579.133
524.09	772.773
526.983	631.539
529.876	479.219
532.768	399.156
535.661	296.125
538.554	217.383
541.446	96.57
544.339	572.953
547.232	702.688
550.125	735.289
553.017	486.305
555.91	576.641
558.803	696.672
561.695	813.812
564.588	1025.27
567.481	1498.47
570.373	1618.03
573.266	1985.58
576.159	2141.85
579.052	2168.41
581.944	2655.51
584.837	3262.8
587.73	3639.08
590.622	4111.27
593.515	4401.94
596.408	4656.43
599.3	4424.99
602.193	4021.45
605.086	3914.95
607.979	3327.17
610.871	2877.59
613.764	2340.09
616.657	1898.69
619.549	1859.99
622.442	1488.34
625.335	1308.77
628.227	899.086
631.12	736.695
634.013	64.336
636.906	87.266
639.798	142.172
642.691	229.328
645.584	152.172
648.476	285.32
651.369	610.945
654.262	711.102
657.154	399.516
660.047	371.93
662.94	157.008
665.833	242.25
668.725	495.641
671.618	406.406
674.51	140.023
677.403	101.258
680.296	32.156
683.189	413.562
686.081	788.023
688.974	556.75
691.867	851.062
694.759	671.797
697.652	333.945
700.545	214.305
703.438	21.867
706.33	349.781
709.223	64.281
712.116	101.156
715.008	195.055
717.901	573.492
720.794	693.656
723.686	875.148
726.579	874.906
729.472	601.688
732.365	171.758
735.257	16.008
738.15	181.648
741.043	111.781
743.935	179.547
746.828	571.375
749.721	457.82
752.613	153.828
755.506	185.93
758.399	187.336
761.291	220.492
764.184	242.453
767.077	275.023
769.969	709.984
772.862	764.492
775.755	675.219
778.648	731.508
781.54	997.102
784.433	1150.39
787.326	1687.32
790.218	2304.88
793.111	2923.05
796.004	3658.11
798.896	4452.91
801.789	5457.7
804.682	7272.69
807.575	9380.94
810.467	11647.8
813.36	12686.1
816.253	14203.2
819.145	17425.9
822.038	21597.6
824.931	26165.2
827.823	29152.8
830.716	26175.7
833.609	21894.5
836.502	14669.5
839.394	6083.46
842.287	3136.84
845.18	2110.43
848.072	1272.28
850.965	1104.99
853.858	641.383
856.75	431.805
859.643	694.242
862.536	1116.2
865.429	760.648
868.321	724.742
871.214	526.867
874.107	591.422
876.999	676.695
879.892	752.711
882.785	349.078
885.677	489.914
888.57	280.523
891.463	457.086
894.356	640.922
897.248	735.141
900.141	367
903.034	15.703
905.926	58.25
908.819	9.531
911.712	67.5
914.604	43.195
917.497	8.703
920.39	71.141
923.283	335.094
926.175	622.938
929.068	611.68
931.961	562.305
934.853	444.688
937.746	372.75
940.639	401.922
943.531	217.812
946.424	180.805
949.317	64.023
952.209	296.203
955.102	139.414
957.995	232.234
960.888	241.273
963.78	325.523
966.673	606.117
969.566	469.633
972.458	311.352
975.351	263.461
978.244	320.289
981.136	384.969
984.029	479.031
986.922	251
989.815	256.43
992.707	105.477
995.6	324.289
998.493	546.988
1001.38	912.754
1004.28	1110.49
1007.17	1566.02
1010.06	855.863
1012.96	435.516
1015.85	316.121
1018.74	48.969
1021.63	194.359
1024.53	514.895
1027.42	429.715
1030.31	340.562
1033.2	387.039
1036.1	324.355
1038.99	385.613
1041.88	186.59
1044.78	169.504
1047.67	154.102
1050.56	19.203
1053.45	376.445
1056.35	480.824
1059.24	371.527
1062.13	154.426
1065.03	31.344
1067.92	2.605
1070.81	59.383
1073.7	161.957
1076.6	63.129
1079.49	136.555
1082.38	543.32
1085.27	192.852
1088.17	386.492
1091.06	434.898
1093.95	478.992
1096.84	882.84
1099.74	856.633
1102.63	1045.24
1105.52	1627.29
1108.41	2766.11
1111.31	3523.71
1114.2	5407.07
1117.09	6535.99
1119.99	3449.1
1122.88	1592.86
1125.77	1278.83
1128.66	1226.98
1131.56	961.543
1134.45	828.117
1137.34	507.391
1140.23	402.789
1143.13	222.715
1146.02	115.824
1148.91	91.789
1151.81	209.273
1154.7	207.734
1157.59	326.973
1160.48	200.613
1163.38	150.168
1166.27	55.863
1169.16	13.5
1172.06	38.883
1174.95	226.977
1177.84	407.906
1180.73	293.234
1183.62	418.41
1186.52	411.863
1189.41	290.285
1192.3	220.527
1195.2	49.133
1198.09	20.477
1200.98	29.594
1203.87	101.91
1206.77	203.055
1209.66	267.836
1212.55	399.664
1215.44	361.934
1218.34	79.016
1221.23	67.84
1224.12	115.59
1227.02	230.754
1229.91	322.797
1232.8	404.641
1235.69	427.688
1238.59	454.176
1241.48	349.148
1244.37	338.73
1247.27	440.543
1250.16	315.859
1253.05	255.73
1255.94	491.582
1258.84	460.512
1261.73	51.418
1264.62	66.301
1267.51	4.145
1270.41	309.297
1273.3	609.379
1276.19	576.367
1279.08	434.039
1281.98	420.648
1284.87	280.941
1287.76	407.535
1290.65	188.367
1293.55	205.016
1296.44	134.266
1299.33	197.969
