Measurement: Raman, 532 nm, unoriented, Raman Data Processed
Mineral: Ottensite
Rruff sample: R070115
Ideal chemistry: Na_3_(Sb_2_O_3_)_3_(SbS_3_)3H_2_O
Locality: Qinglong District, Qinglong, Qianxi'n Autonomous Prefecture (Qianxi'nan Buyizu Miaozu), Guizhou
Source: Michael Scott
Description: Loose red-brown granular glassy fragments intimately associated with mopungite
Raman shift (cm-1)	intensity
196.947	0
199.84	46.624
202.732	90.0562
205.625	71.793
208.518	45.4424
211.411	30.8081
214.303	47.8003
217.196	36.6397
220.089	43.1641
222.981	114.635
225.874	250.657
228.767	336.748
231.659	434.721
234.552	572.96
237.445	821.311
240.338	969.713
243.23	1019.34
246.123	1244.48
249.016	1237.9
251.908	1196.81
254.801	1260.49
257.694	1287.85
260.586	1271.91
263.479	1400.9
266.372	1499.52
269.264	1649.45
272.157	1806.02
275.05	2090.16
277.943	2433.59
280.835	2720.39
283.728	3137.43
286.621	3317.37
289.514	3521.68
292.406	3502.14
295.299	3490.75
298.192	3202.12
301.084	3019.71
303.977	2909.05
306.87	2790.34
309.762	2976.79
312.655	3045.93
315.548	3177.42
318.44	3185.83
321.333	3177.09
324.226	3004.46
327.119	2874.47
330.011	2814.92
332.904	2514.52
335.797	2371.74
338.689	2273.7
341.582	2286.59
344.475	2262.3
347.368	2316.55
350.26	2166.14
353.153	1538.69
356.046	888.062
358.938	419.258
361.831	147.029
364.724	20.9936
367.616	89.6089
370.509	93.4243
373.402	39.3989
376.295	45.0469
379.187	135.758
382.08	186.289
384.973	273.648
387.865	105.962
390.758	126.415
393.651	37.2642
396.543	127.181
399.436	172.479
402.329	107.545
405.221	130.497
408.114	98.5596
411.007	144.43
413.9	105.712
416.792	102.957
419.685	100.569
422.578	82.3599
425.47	60.269
428.363	70.9541
431.256	25.1641
434.149	3.44434
437.041	39.9102
439.934	3.04785
442.827	2.12842
445.719	30.9961
448.612	32.1875
451.505	18.4448
454.397	62.9858
457.29	89.2202
460.183	140.542
463.075	158.408
465.968	174.158
468.861	228.345
471.754	237.722
474.646	267.539
477.539	189.458
480.432	247.673
483.324	182.899
486.217	198.654
489.11	124.121
492.003	166.597
494.895	224.386
497.788	186.71
500.681	200.365
503.573	216.065
506.466	297.11
509.359	427.467
512.251	557.28
515.144	695.034
518.037	808.002
520.93	937.699
523.822	1089.84
526.715	1187.87
529.608	1200.16
532.5	1191.01
535.393	1120.88
538.286	1012.94
541.178	826.4
544.071	636.689
546.964	493.492
549.857	416.239
552.749	327.334
555.642	245.292
558.535	171.676
561.427	92.1182
564.32	87.7637
567.213	18.1763
570.106	93.0503
572.998	20.2349
575.891	21.1367
578.784	73.1919
581.676	10.2725
584.569	49.4746
587.462	94.7075
590.354	189.299
593.247	136.324
596.14	193.079
599.033	252.901
601.925	263.66
604.818	278
607.711	347.197
610.603	300.96
613.496	261.671
616.389	187.534
619.281	148.185
622.174	97.293
625.067	123.764
627.96	49.999
630.852	26.8213
633.745	7.09277
636.638	18.4702
639.53	18.1973
642.423	31.523
645.316	42.0117
648.208	11.8677
651.101	26.9028
653.994	27.9707
656.886	28.9321
659.779	32.0869
662.672	9.37842
665.565	44.8672
668.457	37.6626
671.35	35.3569
674.243	48.583
677.135	120.543
680.028	129.602
682.921	170.052
685.813	169.093
688.706	144.623
691.599	220.147
694.492	219.03
697.384	245.292
700.277	238.175
703.17	136.198
706.062	235.332
708.955	86.25
711.848	111.872
714.74	131.572
717.633	98.8037
720.526	103.621
723.419	53.5322
726.311	96.3511
729.204	85.6426
732.097	147.643
734.989	176.64
737.882	209.663
740.775	184.238
743.668	297.122
746.56	313.371
749.453	346.148
752.346	298.576
755.238	341.602
758.131	314.964
761.024	279.538
763.917	248.953
766.809	244.351
769.702	183.225
772.595	114.17
775.487	100.605
778.38	83.1699
781.273	30.0366
784.165	21.2368
787.058	11.1606
789.951	67.1472
792.843	17.8332
795.736	32.7527
798.629	46.1589
801.522	8.02685
804.414	27.3772
807.307	60.7058
810.2	38.3123
813.092	10.4688
815.985	38.3713
818.878	6.07227
821.77	20.5918
824.663	59.7105
827.556	18.2512
830.449	35.824
833.341	47.3301
836.234	19.3848
839.127	37.783
842.019	49.3638
844.912	32.2805
847.805	61.616
850.697	83.1301
853.59	20.9912
856.483	78.0791
859.376	79.5625
862.268	74.0376
865.161	39.6538
868.054	50.9961
870.946	10.4363
873.839	49.2039
876.732	65.9961
879.625	30.7373
882.517	31.2886
885.41	53.3118
888.303	72.1411
891.195	29.0938
894.088	12.6128
896.981	69.3518
899.874	57.0786
902.766	20.894
905.659	28.6372
908.552	11.0418
911.444	42.1216
914.337	7.91797
917.23	53.0044
920.122	24.3179
923.015	10.9197
925.908	42.0063
928.801	2.05322
931.693	25.3696
934.586	6.69702
937.479	33.7715
940.371	15.5542
943.264	34.6982
946.157	48.5779
949.049	27.4397
951.942	28.1272
954.835	45.2112
957.727	41.533
960.62	11.9548
963.513	22.5498
966.406	34.5476
969.298	35.9988
972.191	34.1433
975.084	50.3879
977.976	85.8545
980.869	43.1838
983.762	17.9075
986.654	74.6816
989.547	68.7415
992.44	41.8745
995.333	39.7964
998.225	27.5295
1001.12	41.9475
1004.01	37.0842
1006.9	3.20606
1009.8	94.3721
1012.69	40.2002
1015.58	35.3735
1018.47	31.7163
1021.37	49.2126
1024.26	42.4487
1027.15	61.178
1030.05	34.8565
1032.94	85.1419
1035.83	20.728
1038.72	44.7214
1041.62	28.4898
1044.51	4.37671
1047.4	44.4404
1050.29	17.2669
1053.19	28.7761
1056.08	17.0364
1058.97	82.092
1061.87	54.0046
1064.76	3.1499
1067.65	52.7053
1070.54	19.1965
1073.44	47.5137
1076.33	12.239
1079.22	77.3474
1082.11	11.4287
1085.01	24.6699
1087.9	31.7776
1090.79	106.08
1093.68	37.0244
1096.58	55.7129
1099.47	0.064453
1102.36	51.2715
1105.26	37.1089
1108.15	57.4165
1111.04	13.0547
1113.93	56.0483
1116.83	11.9021
1119.72	41.5295
1122.61	61.9724
1125.5	38.5925
1128.4	33.5166
1131.29	45.5393
1134.18	27.7293
1137.08	11.1755
1139.97	92.2715
1142.86	67.6536
1145.75	67.3603
1148.65	35.6665
1151.54	83.3191
1154.43	32.5796
1157.32	6.63647
1160.22	161.595
1163.11	59.2847
1166	59.5049
1168.89	51.4993
1171.79	83.8481
1174.68	51.7583
1177.57	79.9871
1180.46	1.51831
1183.36	93.2019
1186.25	35.8508
1189.14	48.2014
1192.04	53.5185
1194.93	82.0212
1197.82	44.311
1200.71	17.8394
1203.61	74.8259
1206.5	58.1033
1209.39	64.4348
1212.29	75.5493
1215.18	26.199
1218.07	33.9954
1220.96	15.8435
1223.86	26.804
1226.75	56.2747
1229.64	78.5166
1232.53	75.0322
1235.43	47.0776
1238.32	20.324
1241.21	46.6143
1244.11	58.6658
1247	94.094
1249.89	68.1113
1252.78	109.046
1255.68	71.5686
1258.57	86.6267
1261.46	31.491
1264.35	31.1504
1267.25	88.9697
1270.14	36.6938
1273.03	72.3884
1275.92	84.7529
1278.82	41.5459
1281.71	32.0977
1284.6	74.2173
1287.49	45.1003
1290.39	76.5669
1293.28	44.7315
1296.17	82.1306
1299.07	80.6079
1301.96	68.8525
1304.85	103.114
1307.74	24.717
1310.64	15.739
1313.53	6.27661
