Measurement: Raman, 532 nm, unoriented, Raman Data Processed
Mineral: Owyheeite
Rruff sample: R070543
Ideal chemistry: Ag^1+^_3_Pb^2+^_10_Sb^3+^_11_S^2-^_28_
Locality: Covada, Colville Indian Reservation, Ferry County, Washington, USA
Source: James Shigley
Description: Aggregate of metallic black acicular crystals associated with quartz
Raman shift (cm-1)	intensity
155.941	0
158.833	18.6921
161.726	26.8601
164.619	5.58203
167.512	25.6521
170.404	37.0692
173.297	30.0974
176.19	36.1556
179.082	71.3323
181.975	44.5656
184.868	84.1655
187.761	77.8828
190.653	86.743
193.546	72.3734
196.439	1.99158
199.331	33.9381
202.224	36.2336
205.117	54.7398
208.009	39.6809
210.902	47.7687
213.795	33.748
216.688	13.2722
219.58	64.18
222.473	25.0877
225.366	55.5332
228.258	50.2068
231.151	60.2895
234.044	49.8547
236.936	44.3119
239.829	33.7047
242.722	79.4182
245.614	174.871
248.507	187.862
251.4	158.017
254.293	106.275
257.185	110.097
260.078	60.5455
262.971	52.6046
265.863	39.4705
268.756	28.6179
271.649	31.4918
274.541	32.0277
277.434	20.9021
280.327	10.4017
283.22	58.5753
286.112	7.58667
289.005	70.1533
291.898	20.8946
294.79	55.0393
297.683	2.9613
300.576	8.17908
303.469	7.86462
306.361	16.6788
309.254	17.8087
312.147	2.36768
315.039	22.0017
317.932	51.6818
320.825	8.05688
323.717	58.5759
326.61	40.1008
329.503	31.5327
332.396	22.7649
335.288	22.0442
338.181	28.4258
341.074	33.4752
343.966	32.6077
346.859	26.0825
349.752	16.2793
352.644	34.7019
355.537	31.896
358.43	5.14441
361.322	13.0044
364.215	16.8416
367.108	12.4331
370.001	6.53625
372.893	18.5714
375.786	37.2401
378.679	20.5016
381.572	12.4168
384.464	11.9987
387.357	45.6242
390.25	28.6055
393.142	21.9136
396.035	29.1494
398.928	30.5794
401.82	37.4398
404.713	20.0544
407.606	39.6677
410.498	23.0225
413.391	35.618
416.284	37.0641
419.177	7.23303
422.069	16.6421
424.962	47.3534
427.855	45.7231
430.747	44.3755
433.64	88.3412
436.533	86.6394
439.425	106.457
442.318	94.254
445.211	96.2496
448.104	111.589
450.996	64.5568
453.889	62.9825
456.782	52.8716
459.674	45.0325
462.567	67.3782
465.46	51.2797
468.353	28.9547
471.245	47.8971
474.138	34.5582
477.031	29.0264
479.923	21.8112
482.816	18.1963
485.709	28.6792
488.601	17.8225
491.494	4.82434
494.387	22.2854
497.279	20.8732
500.172	22.4127
503.065	12.2749
505.958	8.98669
508.85	33.3182
511.743	11.8133
514.636	14.0017
517.528	15.4901
520.421	10.8283
523.314	5.02466
526.207	11.3053
529.099	24.8586
531.992	6.87805
534.885	19.8287
537.777	9.48377
540.67	28.7716
543.563	21.491
546.455	25.5798
549.348	23.7733
552.241	11.9073
555.134	5.92798
558.026	6.98645
560.919	1.28003
563.812	27.4708
566.704	12.3037
569.597	6.69568
572.49	8.36255
575.382	0.812866
578.275	3.39343
581.168	4.48041
584.061	10.5065
586.953	30.3468
589.846	9.68433
592.739	22.1694
595.631	23.0732
598.524	41.1713
601.417	43.9247
604.309	55.3429
607.202	27.0394
610.095	49.0864
612.987	57.7292
615.88	28.4645
618.773	29.671
621.666	13.5411
624.558	24.1711
627.451	25.8794
630.344	16.4014
633.236	19.3325
636.129	5.03638
639.022	20.4041
641.915	18.9158
644.807	29.0825
647.7	24.2374
650.593	15.5607
653.485	23.3578
656.378	21.7877
659.271	29.0494
662.163	43.5419
665.056	9.85303
667.949	15.3663
670.842	22.4101
673.734	5.27508
676.627	4.16919
679.52	1.58356
682.412	21.801
685.305	27.6202
688.198	4.93823
691.091	28.3901
693.983	31.5494
696.876	34.4605
699.769	21.926
702.661	29.4162
705.554	15.7629
708.447	27.7684
711.339	30.2087
714.232	17.0877
717.125	19.2899
720.018	32.2856
722.91	26.3162
725.803	35.072
728.696	20.8331
731.588	28.7019
734.481	19.81
737.374	15.2212
740.266	10.5166
743.159	11.239
746.052	35.6787
748.944	10.0535
751.837	15.9586
754.73	1.69311
757.623	40.4799
760.515	27.5219
763.408	43.905
766.301	3.39484
769.193	4.96698
772.086	32.0064
774.979	8.83453
777.871	4.15057
780.764	20.3765
783.657	13.2825
786.55	31.6182
789.442	25.0135
792.335	20.2798
795.228	33.3753
798.12	5.55707
801.013	27.9554
803.906	21.028
806.798	51.8915
809.691	25.324
812.584	32.652
815.477	10.6372
818.369	18.4116
821.262	46.4091
824.155	27.4374
827.047	30.141
829.94	26.2501
832.833	27.4298
835.726	1.93219
838.618	26.6788
841.511	22.1427
844.404	11.8016
847.296	46.8523
850.189	21.1912
853.082	21.5154
855.975	19.4168
858.867	26.3674
861.76	21.3098
864.653	24.5828
867.545	29.5538
870.438	27.8269
873.331	7.40118
876.223	0.526367
879.116	28.646
882.009	15.2474
884.902	9.72681
887.794	33.3198
890.687	4.18225
893.58	2.18256
896.472	20.2195
899.365	13.5005
902.258	9.31506
905.15	2.25147
908.043	5.31409
910.936	33.3446
913.828	19.4669
916.721	20.7795
919.614	10.0128
922.507	1.94336
925.399	7.38794
928.292	23.6086
931.185	17.7416
934.077	11.72
936.97	16.3848
939.863	9.70007
942.755	39.4174
945.648	21.2159
948.541	64.078
951.434	48.8755
954.326	69.2451
957.219	83.9066
960.112	75.1112
963.004	111.689
965.897	139.769
968.79	102.154
971.683	124.314
974.575	74.2477
977.468	56.5217
980.361	55.33
983.253	32.7249
986.146	15.1803
989.039	24.4206
991.931	20.8623
994.824	33.3013
997.717	1.5802
1000.61	15.4658
1003.5	31.234
1006.39	9.0592
1009.29	13.0333
1012.18	12.7954
1015.07	6.32324
1017.97	38.3181
1020.86	0.476074
1023.75	0.527466
1026.64	5.24768
1029.54	28.9619
1032.43	7.54236
1035.32	22.4352
1038.21	15.0094
1041.11	18.5547
1044	24.2267
1046.89	31.1802
1049.79	36.7825
1052.68	31.6969
1055.57	32.6077
1058.46	5.73535
1061.36	13.9257
1064.25	30.5041
1067.14	42.1605
1070.03	14.8214
1072.93	7.10266
1075.82	18.8066
1078.71	24.2866
1081.61	30.9138
1084.5	28.4084
1087.39	21.6597
1090.28	20.6411
1093.18	33.2993
1096.07	15.291
1098.96	29.3165
1101.85	38.2685
1104.75	8.83435
1107.64	2.10779
1110.53	39.1935
1113.42	8.82165
1116.32	36.6548
1119.21	30.6693
1122.1	3.03796
1125	17.6383
1127.89	15.3137
1130.78	23.1915
1133.67	25.4263
1136.57	24.9827
1139.46	26.9258
1142.35	48.1844
1145.24	21.3176
1148.14	24.623
1151.03	42.1351
1153.92	9.15161
1156.82	21.2655
1159.71	33.8933
1162.6	29.2191
1165.49	31.2151
1168.39	19.8246
1171.28	14.8914
1174.17	10.4426
1177.06	19.3804
1179.96	23.976
1182.85	30.1929
1185.74	32.1307
1188.63	25.3429
1191.53	10.7015
1194.42	25.1567
1197.31	21.4808
1200.21	22.6715
1203.1	10.9751
1205.99	12.7985
1208.88	28.3098
1211.78	13.1222
1214.67	0.869019
1217.56	54.0591
1220.45	20.2881
1223.35	47.2199
1226.24	42.2462
1229.13	36.3574
1232.03	25.235
1234.92	33.3362
1237.81	24.2831
1240.7	19.6859
1243.6	39.2139
1246.49	7.26672
1249.38	37.9957
1252.28	35.2418
1255.17	10.3995
1258.06	40.6945
1260.95	50.3898
1263.85	46.3807
1266.74	33.6456
1269.63	32.3492
1272.52	33.1519
1275.42	19.7186
1278.31	10.5112
1281.2	41.2637
1284.09	13.3917
1286.99	3.79639
