Measurement: Raman, 532 nm, unoriented, Raman Data Processed
Mineral: Paakkonenite
Rruff sample: R090073
Ideal chemistry: Sb_2_AsS_2_
Locality: Damingshan Mountain area, Defeng, Shanglin County, Guangxi Province, China
Source: William W. Pinch
Description: Silvery-gray metallic, elongated but platy, crystals in spherical aggregates associated with dolomite and kermesite
Raman shift (cm-1)	intensity
137.815	0
141.19	0.765074
144.565	0.077385
147.94	0.027561
151.315	0.291833
154.689	2.4104
158.064	2.01565
161.439	3.05988
164.814	5.34207
168.189	7.57698
171.563	6.82667
174.938	5.90802
178.313	6.30709
181.688	8.45626
185.063	11.1728
188.437	15.6971
191.812	21.4582
195.187	29.4368
198.562	29.7435
201.937	32.9651
205.311	38.3096
208.686	15.1414
212.061	9.26865
215.436	7.51304
218.811	6.17819
222.186	5.78174
225.56	6.08128
228.935	5.18216
232.31	5.25956
235.685	4.68348
239.06	4.14854
242.435	3.3514
245.809	3.6991
249.184	4.80435
252.559	6.75931
255.934	11.2279
259.309	12.7904
262.683	4.788
266.058	0.486726
269.433	0.618137
272.808	0.598687
276.183	0.506502
279.558	0.477352
282.932	1.5806
286.307	2.25865
289.682	3.90296
293.057	5.28323
296.432	6.16062
299.806	5.72732
303.181	2.54935
306.556	1.79926
309.931	1.71395
313.306	1.88136
316.68	1.57039
320.055	1.67609
323.43	3.39909
326.805	2.78747
330.18	4.12785
333.555	4.87758
336.929	3.74394
340.304	1.73117
343.679	1.58521
347.054	0.188346
350.429	0.498795
353.803	0.651999
357.178	0.621346
360.553	0.469089
363.928	0.907257
367.303	0.495659
370.678	1.93975
374.052	1.50061
377.427	1.19996
380.802	1.61647
384.177	1.67053
387.552	1.01225
390.926	0.99994
394.301	1.50608
397.676	2.33156
401.051	2.10085
404.426	1.27789
407.8	1.24155
411.175	0.608444
414.55	0.36341
417.925	0.091764
421.3	0.824286
424.675	0.530379
428.049	1.28615
431.424	0.709367
434.799	1.17271
438.174	0.368159
441.549	0.853008
444.923	0.327216
448.298	0.61642
451.673	0.620591
455.048	0.873769
458.423	0.336902
461.798	0.746714
465.172	0.063184
468.547	1.08742
471.922	0.048798
475.297	0.16273
478.672	1.02487
482.046	0.248043
485.421	0.154016
488.796	0.085991
492.171	1.12112
495.546	0.332608
498.921	1.14065
502.295	0.516976
505.67	0.282205
509.045	0.259123
512.42	0.995768
515.795	0.617521
519.169	0.644629
522.544	0.688563
525.919	0.934824
529.294	0.529377
532.669	1.24927
536.044	0.3375
539.418	0.810925
542.793	0.299187
546.168	0.825793
549.543	0.704398
552.918	0.54916
556.293	0.154786
559.667	0.582255
563.042	0.740599
566.417	0.481286
569.792	0.706884
573.167	1.1074
576.541	0.734997
579.916	0.408169
583.291	0.802545
586.666	0.331394
590.041	0.324864
593.415	0.456097
596.79	0.49376
600.165	0.15579
603.54	0.562298
606.915	0.305186
610.289	0.740141
613.664	0.365351
617.039	0.31288
620.414	0.680603
623.789	0.271018
627.164	1.11879
630.538	0.069342
633.913	0.293572
637.288	0.85255
640.663	0.851872
644.038	0.888487
647.413	1.25196
650.787	0.951916
654.162	0.152231
657.537	0.476208
660.912	0.383682
664.287	0.937479
667.661	0.121702
671.036	0.327744
674.411	0.274726
677.786	0.836385
681.161	0.686806
684.535	0.528798
687.91	0.483742
691.285	0.924076
694.66	0.932601
698.035	0.40374
701.409	1.01438
704.784	0.639445
708.159	0.802533
711.534	1.0592
714.909	0.162964
718.284	0.47499
721.658	0.531104
725.033	0.884024
728.408	0.99402
731.783	1.45524
735.158	0.818375
738.533	0.666775
741.907	0.648351
745.282	0.582127
748.657	1.40455
752.032	0.000574
755.407	0.616807
758.781	0.41261
762.156	0.404434
765.531	0.648564
768.906	0.370188
772.281	0.067757
775.655	0.607336
779.03	0.75217
782.405	0.688491
785.78	0.061725
789.155	0.64871
792.53	0.658102
795.904	0.697555
799.279	0.611599
802.654	0.880503
806.029	0.466413
809.404	1.40318
812.779	1.29092
816.153	0.337517
819.528	0.788335
822.903	0.697044
826.278	0.726366
829.653	0.354465
833.027	0.534064
836.402	0.160115
839.777	0.820523
843.152	1.02071
846.527	1.43667
849.902	1.44877
853.276	0.12221
856.651	1.0013
860.026	0.445785
863.401	0.436512
866.776	0.405042
870.15	0.544995
873.525	0.748232
876.9	0.561159
880.275	1.09594
883.65	1.25455
887.024	0.796294
890.399	0.796379
893.774	0.004704
897.149	0.445156
900.524	0.536815
903.899	0.618866
907.273	0.127045
910.648	0.50832
914.023	0.737471
917.398	0.424993
920.773	0.904914
924.148	0.897398
927.522	0.713151
930.897	0.803528
934.272	0.095197
937.647	0.451282
941.021	0.387688
944.396	0.134022
947.771	0.120099
951.146	0.024706
954.521	0.169111
957.896	0.321859
961.27	0.368405
964.645	1.19022
968.02	0.825824
971.395	0.600266
974.77	0.0301451
978.144	0.156028
981.519	0.353943
984.894	0.256235
988.269	0.630419
991.644	0.962626
995.019	0.397517
998.393	0.61132
1001.77	0.959852
1005.14	0.488177
1008.52	0.934194
1011.89	0.519086
1015.27	0.831344
1018.64	0.162517
1022.02	1.26347
1025.39	0.559695
1028.77	0.112647
1032.14	0.237668
1035.52	0.950022
1038.89	0.277049
1042.27	0.254199
1045.64	1.27804
1049.02	0.641985
1052.39	0.554698
1055.77	0.170942
1059.14	1.58346
1062.52	0.653578
1065.89	0.82403
1069.27	0.341867
1072.64	0.561488
1076.01	0.47396
1079.39	1.22836
1082.76	0.823116
1086.14	0.234602
1089.51	1.2886
1092.89	0.52161
1096.26	0.972029
1099.64	0.32927
1103.01	0.661272
1106.39	0.64572
1109.76	0.907244
1113.14	0.620873
1116.51	0.711207
1119.89	0.522725
1123.26	1.06714
1126.64	1.18828
1130.01	1.00513
1133.39	0.620646
1136.76	0.982157
1140.14	0.300364
1143.51	0.836027
1146.88	0.133316
1150.26	1.26564
1153.63	0.452867
1157.01	0.527712
1160.38	0.384853
1163.76	0.091183
1167.13	0.618464
1170.51	0.466253
1173.88	0.951534
1177.26	0.57835
1180.63	0.470802
1184.01	0.599935
1187.38	0.084959
1190.76	0.862564
1194.13	0.071904
1197.51	0.948221
1200.88	0.31358
1204.26	0.099657
1207.63	0.357591
1211.01	1.64766
1214.38	0.328208
1217.76	1.49701
1221.13	0.542548
1224.51	0.538073
1227.88	0.514729
1231.26	0.798834
1234.63	0.264497
1238.01	0.65441
1241.38	0.204798
1244.76	0.586535
1248.13	0.353997
1251.51	1.0697
1254.88	1.31685
1258.25	0.288489
1261.63	0.1726
1265	0.461436
1268.38	0.764522
1271.75	1.15249
1275.13	0.674769
1278.5	0.41314
1281.88	0.814183
1285.25	0.763913
1288.63	0.201834
1292	0.292928
1295.38	0.730327
1298.75	0.929319
1302.13	0
