Measurement: Raman, 780 nm, unoriented, Raman Data Processed
Mineral: Paakkonenite
Rruff sample: R090073
Ideal chemistry: Sb_2_AsS_2_
Locality: Damingshan Mountain area, Defeng, Shanglin County, Guangxi Province, China
Source: William W. Pinch
Description: Silvery-gray metallic, elongated but platy, crystals in spherical aggregates associated with dolomite and kermesite
Raman shift (cm-1)	intensity
96.9664	0
100.341	2.17991
103.716	1.45495
107.091	2.16646
110.466	1.13209
113.841	4.25068
117.215	4.03362
120.59	2.89704
123.965	1.08817
127.34	0.746544
130.714	0.935659
134.089	0.766594
137.464	0.628534
140.839	0.583408
144.214	1.22425
147.589	1.47934
150.963	2.828
154.338	1.6589
157.713	5.77271
161.088	7.02251
164.463	7.71558
167.838	9.58348
171.212	11.6724
174.587	18.0057
177.962	25.6804
181.337	30.9468
184.712	41.3898
188.086	46.1912
191.461	45.8708
194.836	44.1673
198.211	37.1339
201.586	32.8686
204.96	23.8838
208.335	17.5288
211.71	16.971
215.085	14.4547
218.46	15.8331
221.835	13.0833
225.209	12.579
228.584	13.6266
231.959	12.1421
235.334	10.9233
238.709	11.0422
242.083	6.46998
245.458	6.63096
248.833	5.66031
252.208	5.18378
255.583	2.21551
258.958	1.17481
262.332	0.501997
265.707	1.01961
269.082	0.358613
272.457	0.351686
275.832	0.012614
279.207	1.74863
282.581	1.34097
285.956	1.74862
289.331	2.52945
292.706	4.60141
296.081	5.90403
299.455	7.35785
302.83	9.05096
306.205	10.3229
309.58	12.2626
312.955	11.1558
316.329	11.1232
319.704	8.08344
323.079	5.40515
326.454	5.50631
329.829	4.01526
333.204	3.56099
336.578	1.53515
339.953	1.34803
343.328	0.578154
346.703	1.1684
350.078	0.128171
353.452	0.211817
356.827	0.789448
360.202	0.716606
363.577	0.145502
366.952	0.743713
370.327	1.60321
373.701	0.07432
377.076	1.41699
380.451	1.7739
383.826	0.136343
387.201	1.16808
390.575	1.05499
393.95	0.150298
397.325	1.58956
400.7	0.19289
404.075	1.33314
407.45	0.679652
410.824	1.52736
414.199	1.65202
417.574	0.368286
420.949	2.1969
424.324	1.84332
427.698	1.32848
431.073	0.224872
434.448	1.46031
437.823	0.365357
441.198	1.66622
444.572	0.590806
447.947	0.812705
451.322	2.05416
454.697	0.044713
458.072	0.854152
461.447	1.90084
464.821	0.936005
468.196	1.47201
471.571	1.26435
474.946	1.5274
478.321	1.99913
481.695	1.50116
485.07	1.03086
488.445	0.040547
491.82	2.0879
495.195	0.201145
498.57	0.572511
501.944	2.3759
505.319	1.47637
508.694	0.042071
512.069	1.85093
515.444	1.04834
518.818	1.34889
522.193	1.33948
525.568	1.37776
528.943	0.061606
532.318	1.40684
535.693	0.790242
539.067	1.58699
542.442	0.595824
545.817	1.33294
549.192	0.489271
552.567	1.92036
555.942	0.979824
559.316	1.143
562.691	2.52476
566.066	0.572695
569.441	1.6221
572.816	1.40842
576.19	0.475287
579.565	1.00852
582.94	0.856085
586.315	1.20013
589.69	0.918612
593.064	0.41843
596.439	0.370584
599.814	0.884344
603.189	0.388033
606.564	0.546385
609.938	1.55833
613.313	0.486057
616.688	1.10428
620.063	0.886643
623.438	0.036451
626.813	0.925601
630.187	0.01754
633.562	1.24031
636.937	1.87042
640.312	2.02676
643.687	1.37797
647.062	2.3245
650.436	1.35255
653.811	1.23454
657.186	1.12998
660.561	1.76405
663.936	0.941608
667.31	0.28212
670.685	2.18242
674.06	0.21969
677.435	1.78852
680.81	0.551071
684.184	1.42833
687.559	2.40631
690.934	2.11007
694.309	0.210885
697.684	0.518417
701.059	1.10724
704.433	1.13664
707.808	1.16597
711.183	1.76982
714.558	2.4279
717.933	1.56554
721.308	1.88169
724.682	1.05522
728.057	1.23142
731.432	0.877908
734.807	0.270507
738.182	1.26039
741.556	1.85609
744.931	1.70031
748.306	0.50213
751.681	1.00094
755.056	1.02855
758.431	1.01387
761.805	0.627163
765.18	2.22317
768.555	0.432799
771.93	0.662679
775.305	0.939861
778.679	0.872345
782.054	0.407723
785.429	1.38286
788.804	0.398067
792.179	1.39821
795.553	0.233676
798.928	0.725133
802.303	0.346715
805.678	0.935703
809.053	1.80795
812.428	1.17621
815.802	1.96059
819.177	2.22453
822.552	1.58471
825.927	0.76542
829.302	0.773749
832.677	0.437925
836.051	1.22525
839.426	1.15369
842.801	2.03955
846.176	1.69086
849.551	0.087446
852.925	1.67365
856.3	0.903013
859.675	0.775199
863.05	1.42897
866.425	1.38132
869.799	1.66419
873.174	0.882806
876.549	1.41918
879.924	0.136199
883.299	1.36115
886.673	1.07213
890.048	1.25339
893.423	0.771049
896.798	1.84482
900.173	1.19453
903.548	0.813829
906.922	0.248355
910.297	0.139752
913.672	0.747411
917.047	1.50086
920.422	0.818934
923.797	1.03202
927.171	0.483287
930.546	0.234209
933.921	1.15192
937.296	1.09894
940.671	1.19018
944.045	0.539575
947.42	0.244336
950.795	1.38784
954.17	1.89116
957.545	2.14378
960.919	2.33677
964.294	1.63221
967.669	0.48438
971.044	1.41517
974.419	0.711068
977.794	0.050079
981.168	1.85225
984.543	2.05982
987.918	1.06744
991.293	1.35155
994.668	1.83349
998.043	2.20915
1001.42	2.01362
1004.79	0.070217
1008.17	1.52292
1011.54	2.14212
1014.92	2.12421
1018.29	1.46451
1021.67	2.25897
1025.04	1.61176
1028.42	0.474022
1031.79	0.17196
1035.17	1.41675
1038.54	0.689085
1041.91	1.60618
1045.29	0.172113
1048.66	0.682507
1052.04	1.12596
1055.41	1.30536
1058.79	1.8661
1062.16	1.88677
1065.54	0.576221
1068.91	2.17934
1072.29	1.45154
1075.66	0.794909
1079.04	2.29666
1082.41	1.52051
1085.79	1.56047
1089.16	1.3697
1092.54	0.736867
1095.91	1.58468
1099.29	2.12015
1102.66	1.57802
1106.04	1.04909
1109.41	1.57375
1112.79	1.48939
1116.16	0.508969
1119.54	1.50606
1122.91	0.675974
1126.29	0.686989
1129.66	0.42894
1133.04	1.30135
1136.41	0.397439
1139.79	0.706736
1143.16	0.869813
1146.53	0.892143
1149.91	0.886696
1153.28	0.245275
1156.66	0.857257
1160.03	1.06129
1163.41	0.083518
1166.78	0.532747
1170.16	1.30309
1173.53	0.862517
1176.91	0.774688
1180.28	0.218236
1183.66	1.63989
1187.03	0.237592
1190.41	0.081184
1193.78	0.971077
1197.16	2.67798
1200.53	0.634964
1203.91	2.38606
1207.28	0.274166
1210.66	0.636161
1214.03	0.133791
1217.41	1.53063
1220.78	0.427826
1224.15	0.833169
1227.53	1.03463
1230.9	1.452
1234.28	0.643206
1237.65	1.52241
1241.03	1.93329
1244.4	1.453
1247.78	1.61718
1251.15	1.14875
1254.53	1.90579
1257.9	0.797051
1261.28	1.15336
1264.65	0.084193
1268.03	0.016602
1271.4	0.81789
1274.78	0.921369
1278.15	2.68743
1281.53	0.236655
1284.9	0.171783
