Measurement: Raman, 532 nm, unoriented, Raman Data Processed
Mineral: Pachnolite
Rruff sample: R070596
Ideal chemistry: NaCaAlF_6_H_2_O
Locality: Ivigtut, Arsuk, Kitaa Province, Greenland
Source: James Shigley
Description: White to colorless translucent prismatic crystals
Raman shift (cm-1)	intensity
142.138	0
145.513	36.6262
148.887	176.825
152.262	329.942
155.637	253.64
159.012	174.208
162.387	263.506
165.762	201.812
169.136	182.634
172.511	200.035
175.886	93.1951
179.261	79.7058
182.636	74.271
186.01	39.1882
189.385	87.7061
192.76	161.087
196.135	111.371
199.51	95.1409
202.885	174.097
206.259	107.43
209.634	42.846
213.009	94.2515
216.384	133.134
219.759	154.889
223.133	215.788
226.508	234.642
229.883	249.78
233.258	208.629
236.633	214.675
240.007	93.0813
243.382	177.013
246.757	58.1157
250.132	45.1609
253.507	22.6382
256.882	36.0147
260.256	10.1394
263.631	64.1394
267.006	77.9751
270.381	113.344
273.756	10.4062
277.13	95.9983
280.505	41.9443
283.88	50.6621
287.255	70.7241
290.63	39.4651
294.005	67.5818
297.379	106.611
300.754	66.8149
304.129	52.4531
307.504	67.8852
310.879	10.6587
314.253	29.5332
317.628	9.30908
321.003	55.6313
324.378	89.6885
327.753	251.269
331.127	345.52
334.502	326.885
337.877	343.831
341.252	311.413
344.627	288.546
348.002	311.381
351.376	158.966
354.751	43.73
358.126	123.068
361.501	107.175
364.876	296.625
368.25	427.73
371.625	572.601
375	805.598
378.375	1139.4
381.75	1376.79
385.125	1336.83
388.499	1378.88
391.874	1208.01
395.249	985.025
398.624	809.628
401.999	539.918
405.373	486.191
408.748	365.866
412.123	337.944
415.498	239.929
418.873	231.234
422.247	175.099
425.622	127.22
428.997	87.1523
432.372	44.6616
435.747	48.4653
439.122	20.7231
442.496	7.69922
445.871	60.0083
449.246	15.6113
452.621	23.2881
455.996	55.2959
459.37	13.8584
462.745	11.7764
466.12	15.7441
469.495	33.0039
472.87	50.6055
476.245	50.3164
479.619	57.6309
482.994	60.4526
486.369	6.31445
489.744	15.7881
493.119	49.896
496.493	101.523
499.868	89.4404
503.243	92.7583
506.618	89.875
509.993	108.01
513.367	74.1553
516.742	62.8413
520.117	40.9277
523.492	82.146
526.867	70.624
530.241	83.1231
533.616	83.8276
536.991	155.134
540.366	218.589
543.741	395.987
547.116	487.143
550.49	619.029
553.865	809.583
557.24	1024.4
560.615	1306.31
563.99	1767.09
567.365	2181.7
570.739	2574.34
574.114	2832.69
577.489	2441.21
580.864	1734.43
584.239	1105.45
587.613	772.298
590.988	508.081
594.363	298.902
597.738	200.036
601.113	185.699
604.487	123.567
607.862	33.4194
611.237	69.8955
614.612	5.98144
617.987	37.5718
621.361	30.3184
624.736	24.0977
628.111	32.7676
631.486	34.7368
634.861	10.0049
638.236	5.89062
641.61	1.34668
644.985	70.1108
648.36	142.031
651.735	83.3086
655.11	120.731
658.485	161.434
661.859	214.879
665.234	315.444
668.609	304.596
671.984	399.333
675.359	446.773
678.733	447.307
682.108	403.073
685.483	242.97
688.858	242.915
692.233	43.4502
695.607	143.522
698.982	101.74
702.357	98.5312
705.732	36.3911
709.107	37.9038
712.481	32.728
715.856	74.9258
719.231	22.0811
722.606	19.4898
725.981	25.4546
729.356	19.9712
732.73	43.75
736.105	53.269
739.48	63.3506
742.855	122.439
746.23	78.6934
749.604	32.9395
752.979	41.6372
756.354	90.7939
759.729	75.6616
763.104	68.7134
766.479	22.4883
769.853	65.0454
773.228	23.1851
776.603	65.4009
779.978	114.818
783.353	47.1562
786.727	87.8843
790.102	37.1201
793.477	11.4634
796.852	41.0737
800.227	33.9194
803.601	52.2759
806.976	21.2139
810.351	19.1636
813.726	0.664063
817.101	65.791
820.476	11.3618
823.85	47.106
827.225	49.3794
830.6	14.1148
833.975	40.2544
837.35	5.38379
840.724	78.4829
844.099	54.7134
847.474	74.3091
850.849	97.9346
854.224	135.776
857.598	82.1103
860.973	83.3545
864.348	77.0478
867.723	70.207
871.098	105.404
874.473	60.8965
877.847	46.7915
881.222	90.6118
884.597	72.2119
887.972	45.2754
891.347	78.8965
894.721	83.2744
898.096	5.07861
901.471	29.0938
904.846	39.187
908.221	33.0249
911.596	20.605
914.97	114.019
918.345	37.2793
921.72	71.1274
925.095	38.9214
928.47	90.2246
931.844	56.1748
935.219	14.9014
938.594	34.1489
941.969	66.7212
945.344	8.11475
948.718	51.0142
952.093	51.4834
955.468	31.4668
958.843	23.7456
962.218	47.2964
965.593	4.35986
968.967	64.2998
972.342	82.0523
975.717	61.2505
979.092	56.2837
982.467	82.5171
985.841	143.982
989.216	150.823
992.591	156.278
995.966	109.83
999.341	155.315
1002.72	90.293
1006.09	75.1079
1009.47	110.785
1012.84	33.248
1016.22	53.8374
1019.59	22.2617
1022.96	75.062
1026.34	75.1909
1029.71	17.5908
1033.09	17.1528
1036.46	23.7173
1039.84	59.3662
1043.21	37.6714
1046.59	38.7593
1049.96	54.2041
1053.34	51.0332
1056.71	42.6948
1060.09	24.3691
1063.46	25.3574
1066.84	48.2983
1070.21	75.2642
1073.59	39.8047
1076.96	2.83594
1080.34	52.4399
1083.71	53.4268
1087.09	8.06787
1090.46	42.1685
1093.84	27.5576
1097.21	91.9707
1100.59	0.105957
1103.96	83.4751
1107.34	83.5947
1110.71	14.6333
1114.08	43.6348
1117.46	52.0098
1120.83	3.59863
1124.21	41.208
1127.58	29.6064
1130.96	81.3413
1134.33	6.76758
1137.71	74.2451
1141.08	88.5259
1144.46	10.77
1147.83	77.7031
1151.21	82.3438
1154.58	52.6187
1157.96	2.73144
1161.33	93.833
1164.71	38.2598
1168.08	152.255
1171.46	41.7007
1174.83	52.4141
1178.21	120.239
1181.58	86.8398
1184.96	51.936
1188.33	55.8848
1191.7	65.2822
1195.08	83.3374
1198.45	44.5176
1201.83	98.2983
1205.2	13.2432
1208.58	64.5044
1211.95	57.4551
1215.33	126.131
1218.7	80.7803
1222.08	60.2661
1225.45	77.7104
1228.83	4.19531
1232.2	70.8887
1235.58	42.3496
1238.95	42.2959
1242.33	11.332
1245.7	70.2573
1249.08	198.523
1252.45	77.4385
1255.83	105.404
1259.2	136.642
1262.58	40.4849
1265.95	53.7559
1269.33	147.423
1272.7	76.5147
1276.08	15.021
1279.45	119.776
1282.83	100.452
1286.2	50.4375
1289.58	96.9131
1292.95	123.228
1296.32	27.3496
1299.7	0
