Measurement: Raman, 780 nm, unoriented, Raman Data Processed
Mineral: Pachnolite
Rruff sample: R070596
Ideal chemistry: NaCaAlF_6_H_2_O
Locality: Ivigtut, Arsuk, Kitaa Province, Greenland
Source: James Shigley
Description: White to colorless translucent prismatic crystals
Raman shift (cm-1)	intensity
112.517	0
115.409	92.0808
118.302	74.6853
121.195	9.33716
124.088	96.1419
126.98	48.4287
129.873	95.5159
132.766	172.511
135.658	202.497
138.551	187.911
141.444	54.8257
144.336	41.167
147.229	7.06274
150.122	17.1216
153.014	63.1687
155.907	25.332
158.8	7.24414
161.693	42.7871
164.585	122.31
167.478	87.0964
170.371	102.294
173.263	151.907
176.156	72.6145
179.049	38.7078
181.941	21.418
184.834	27.3545
187.727	52.5857
190.62	45.398
193.512	131.946
196.405	8.72412
199.298	106.871
202.19	112.136
205.083	101.123
207.976	39.7556
210.869	44.7639
213.761	164.425
216.654	60.5063
219.547	66.1103
222.439	197.7
225.332	183.394
228.225	191.724
231.117	200.048
234.01	133.333
236.903	235.273
239.796	169.542
242.688	138.684
245.581	133.185
248.474	78.2988
251.366	139.395
254.259	72.0615
257.152	37.418
260.044	33.1882
262.937	101.377
265.83	78.5713
268.723	110.872
271.615	86.8745
274.508	34.844
277.401	26.688
280.293	10.4954
283.186	27.6824
286.079	10.6536
288.971	58.3621
291.864	11.7415
294.757	13.0413
297.649	57.217
300.542	45.5012
303.435	92.4631
306.328	56.9832
309.22	8.64526
312.113	30.3884
315.006	64.6628
317.898	14.4927
320.791	77.376
323.684	71.6492
326.577	169.636
329.469	222.79
332.362	239.498
335.255	242.397
338.147	214.455
341.04	310.278
343.933	295.672
346.825	281.945
349.718	238.477
352.611	152.142
355.503	71.8689
358.396	96.4211
361.289	70.6108
364.182	102.952
367.074	215.182
369.967	320.467
372.86	370.077
375.752	556.528
378.645	716.229
381.538	892.96
384.43	999.66
387.323	1032.91
390.216	996.04
393.109	937.821
396.001	756.456
398.894	592.375
401.787	475.929
404.679	373.659
407.572	371.366
410.465	299.202
413.358	265.678
416.25	167.342
419.143	185.697
422.036	152.522
424.928	81.8157
427.821	70.0684
430.714	35.9585
433.606	44.1221
436.499	60.0583
439.392	45.3408
442.284	8.56274
445.177	24.3625
448.07	41.5259
450.963	36.2927
453.855	58.5518
456.748	8.89453
459.641	14.7541
462.533	16.7678
465.426	4.11133
468.319	45.4729
471.212	11.6291
474.104	12.0102
476.997	0.166504
479.89	102.442
482.782	42.575
485.675	96.2026
488.568	94.2317
491.46	104.853
494.353	10.3171
497.246	58.332
500.139	25.8345
503.031	21.6956
505.924	66.7312
508.817	8.65088
511.709	47.0947
514.602	22.2568
517.495	80.3687
520.388	50.7647
523.28	7.64233
526.173	81.5342
529.066	48.9485
531.958	59.1372
534.851	51.9085
537.744	51.5979
540.636	149.399
543.529	165.207
546.422	184.715
549.314	238.668
552.207	362.312
555.1	391.369
557.993	549.902
560.885	658.045
563.778	920.348
566.671	1175.99
569.563	1487.74
572.456	1729.74
575.349	1772.7
578.241	1460.62
581.134	1127.73
584.027	807.446
586.92	660.34
589.812	377.593
592.705	296.122
595.598	209.863
598.49	136.931
601.383	118.302
604.276	87.6941
607.168	23.0266
610.061	50.8169
612.954	68.2129
615.847	26.2146
618.739	44.292
621.632	42.3125
624.525	36.1457
627.417	24.01
630.31	19.3489
633.203	9.00537
636.096	42.4028
638.988	12.8682
641.881	28.0979
644.774	16.0098
647.666	65.679
650.559	14.9739
653.452	47.927
656.344	35.6096
659.237	114.49
662.13	73.8936
665.023	78.6367
667.915	124.845
670.808	109.159
673.701	149.822
676.593	114.206
679.486	162.833
682.379	149.653
685.271	139.954
688.164	63.3262
691.057	30.7493
693.949	62.0596
696.842	23.7192
699.735	0.371094
702.628	3.25903
705.52	3.26514
708.413	37.169
711.306	7.12598
714.198	49.4055
717.091	48.4519
719.984	21.165
722.876	20.1748
725.769	17.0176
728.662	37.4492
731.555	71.9331
734.447	49.2385
737.34	42.97
740.233	59.3284
743.125	25.1257
746.018	88.1223
748.911	67.6626
751.803	53.0801
754.696	87.4697
757.589	93.2898
760.482	66.5544
763.374	65.178
766.267	4.62427
769.16	59.0996
772.052	40.8994
774.945	15.9607
777.838	46.4968
780.731	26.2197
783.623	58.2488
786.516	53.8093
789.409	11.2178
792.301	23.8589
795.194	11.208
798.087	27.2669
800.979	62.6296
803.872	0.51416
806.765	28.0786
809.658	10.0247
812.55	12.793
815.443	4.69653
818.336	35.5359
821.228	71.0022
824.121	38.8972
827.014	57.9094
829.906	31.0601
832.799	10.0732
835.692	10.1736
838.585	12.6846
841.477	15.2979
844.37	32.9124
847.263	5.14282
850.155	22.1521
853.048	39.1362
855.941	63.5369
858.833	24.2922
861.726	45.7022
864.619	58.1685
867.511	21.1687
870.404	47.9409
873.297	98.6228
876.19	43.5486
879.082	46.1575
881.975	3.18701
884.868	0.800049
887.76	9.65454
890.653	34.7214
893.546	19.213
896.438	17.4627
899.331	36.1599
902.224	51.0425
905.117	51.6423
908.009	27.5024
910.902	7.09936
913.795	30.2139
916.687	57.1526
919.58	0.373535
922.473	29.8423
925.365	0.858154
928.258	3.11377
931.151	43.7991
934.044	20.2095
936.936	38.29
939.829	33.708
942.722	27.1875
945.614	25.8196
948.507	21.853
951.4	38.7866
954.293	53.3648
957.185	23.361
960.078	14.3733
962.971	46.1765
965.863	10.5173
968.756	68.0149
971.649	36.3751
974.541	14.1656
977.434	7.18933
980.327	32.5914
983.22	10.6802
986.112	28.2554
989.005	68.0417
991.898	40.4501
994.79	73.4014
997.683	118.616
1000.58	77.3019
1003.47	37.2427
1006.36	18.9391
1009.25	12.1615
1012.15	17.1488
1015.04	45.4072
1017.93	17.3717
1020.83	23.2526
1023.72	42.3966
1026.61	27.4123
1029.5	23.1752
1032.39	7.01111
1035.29	24.1862
1038.18	52.6941
1041.07	87.6436
1043.97	43.3478
1046.86	21.4928
1049.75	50.5222
1052.64	40.0974
1055.54	46.3716
1058.43	68.1018
1061.32	28.4059
1064.21	26.4128
1067.11	52.1921
1070	6.17676
1072.89	43.0554
1075.79	45.7638
1078.68	63.8344
1081.57	46.4613
1084.46	20.2111
1087.36	67.6903
1090.25	49.6414
1093.14	49.2767
1096.04	5.14832
1098.93	3.78467
1101.82	68.8361
1104.71	33.6389
1107.61	24.2548
1110.5	46.0741
1113.39	32.5914
1116.28	28.0781
1119.18	0.91687
1122.07	36.6157
1124.96	48.4695
1127.86	23.1209
1130.75	22.8815
1133.64	14.735
1136.53	5.08447
1139.42	36.0177
1142.32	37.5077
1145.21	37.3058
1148.1	17.2277
1151	41.2422
1153.89	54.8914
1156.78	2.62097
1159.67	4.57654
1162.57	52.1609
1165.46	6.1178
1168.35	39.4885
1171.24	48.3878
1174.14	41.2452
1177.03	34.1494
1179.92	33.0605
1182.82	17.475
1185.71	40.3752
1188.6	8.11023
1191.49	63.0742
1194.39	47.2006
1197.28	42.269
1200.17	48.1129
1203.07	31.8313
1205.96	45.1625
1208.85	7.46301
1211.74	5.0387
1214.64	64.2333
1217.53	35.7677
1220.42	12.5619
1223.31	47.4232
1226.21	37.1801
1229.1	17.8291
1231.99	40.9968
1234.88	3.64258
1237.78	8.96973
1240.67	59.1078
1243.56	16.0552
1246.45	26.3751
1249.35	24.3318
1252.24	46.0001
1255.13	8.58411
1258.03	5.72815
1260.92	52.4657
1263.81	20.6348
1266.7	0.602295
