Measurement: Raman, 532 nm, unoriented, Raman Data Processed
Mineral: Palenzonaite
Rruff sample: R060455
Ideal chemistry: NaCa_2_Mn^2+^_2_(V^5+^O_4_)_3_
Locality: Molinello mine, Val Graveglia, Genova Province, Liguria, Italy
Source: Michael Scott
Description: Dark-red massive crystals associated with calcite, quartz, and muscovite
Raman shift (cm-1)	intensity
219.217	0
222.11	0.568123
225.003	1.33962
227.895	1.78185
230.788	1.21691
233.681	1.47632
236.573	1.53686
239.466	1.8074
242.359	1.46241
245.252	1.50567
248.144	0.737667
251.037	0.024017
253.93	0.226749
256.822	0.802853
259.715	0.154789
262.608	1.51553
265.5	3.64451
268.393	6.07478
271.286	8.8257
274.179	12.6226
277.071	16.5395
279.964	21.0026
282.857	23.7793
285.75	26.323
288.642	30.3754
291.535	32.6478
294.428	36.6375
297.32	39.8235
300.213	43.5246
303.106	48.2361
305.998	54.1463
308.891	57.5728
311.784	57.701
314.676	54.5209
317.569	49.4338
320.462	44.5955
323.355	39.2975
326.247	29.2269
329.14	18.0804
332.033	9.99337
334.925	4.74642
337.818	1.96395
340.711	0.441505
343.603	0.427021
346.496	0.562588
349.389	0.435371
352.281	0.564644
355.174	0.996929
358.067	1.4841
360.96	1.62574
363.852	2.39962
366.745	3.34624
369.638	3.39421
372.53	4.60564
375.423	4.99564
378.316	6.20654
381.209	5.91759
384.101	5.40721
386.994	6.39812
389.887	5.38592
392.779	4.00927
395.672	4.47605
398.565	3.00254
401.457	1.81238
404.35	1.67888
407.243	1.58054
410.135	1.83389
413.028	2.59647
415.921	3.07256
418.814	3.56155
421.706	5.00092
424.599	4.81419
427.492	5.71351
430.384	5.83324
433.277	6.38132
436.17	7.20178
439.062	10.0405
441.955	11.3042
444.848	12.7662
447.741	14.5204
450.633	14.253
453.526	13.9292
456.419	13.9699
459.311	13.3722
462.204	12.6105
465.097	12.8685
467.99	10.446
470.882	9.66535
473.775	7.45151
476.668	6.31086
479.56	4.37779
482.453	2.71852
485.346	1.30899
488.238	0.691269
491.131	0.724136
494.024	0.338192
496.916	0.484352
499.809	0.489523
502.702	0.559666
505.595	0.152798
508.487	0.177576
511.38	0.728544
514.273	0.332863
517.165	1.44404
520.058	0.588299
522.951	0.591705
525.844	0.877466
528.736	0.348394
531.629	0.77198
534.522	0.943617
537.414	0.753096
540.307	0.844065
543.2	0.991613
546.092	1.08701
548.985	1.55834
551.878	0.886473
554.771	1.20794
557.663	0.852623
560.556	0.780149
563.449	1.3233
566.341	1.1027
569.234	0.861731
572.127	0.703314
575.019	1.49249
577.912	1.09219
580.805	1.51948
583.697	1.27642
586.59	1.80733
589.483	1.40408
592.376	1.60722
595.268	1.33415
598.161	2.3522
601.054	2.71368
603.946	2.52211
606.839	2.27278
609.732	2.47278
612.625	3.10372
615.517	3.18337
618.41	3.67
621.303	4.1239
624.195	4.41242
627.088	4.48729
629.981	4.52737
632.873	4.80078
635.766	5.9352
638.659	6.00325
641.552	5.99939
644.444	6.18904
647.337	6.84362
650.23	7.63611
653.122	8.26071
656.015	7.56987
658.908	9.7379
661.8	10.3974
664.693	10.2904
667.586	10.4504
670.479	10.5804
673.371	10.4916
676.264	9.97851
679.157	9.00218
682.049	8.12688
684.942	7.33181
687.835	6.498
690.727	4.84864
693.62	5.0677
696.513	3.13143
699.405	2.53549
702.298	1.8988
705.191	0.744286
708.084	0.101679
710.976	0.627108
713.869	1.37116
716.762	1.709
719.654	1.35355
722.547	1.98025
725.44	1.7177
728.332	0.712151
731.225	0.839153
734.118	1.00475
737.011	2.27745
739.903	4.49948
742.796	7.08882
745.689	10.5663
748.581	14.3954
751.474	18.1548
754.367	23.5379
757.26	27.2923
760.152	30.5084
763.045	35.2803
765.938	37.5751
768.83	40.7729
771.723	42.7999
774.616	46.7622
777.508	51.6754
780.401	59.3983
783.294	71.6689
786.187	86.8063
789.079	108.974
791.972	144.311
794.865	187.911
797.757	247.09
800.65	316.524
803.543	394.373
806.435	464.252
809.328	513.647
812.221	536.395
815.114	550.652
818.006	546.524
820.899	518.501
823.792	461.457
826.684	376.426
829.577	285.533
832.47	200.659
835.362	134.38
838.255	87.4879
841.148	56.2216
844.04	33.8271
846.933	19.267
849.826	8.71497
852.719	1.83418
855.611	3.00592
858.504	2.72499
861.397	0.455894
864.289	7.96671
867.182	17.6416
870.075	29.2416
872.967	43.1298
875.86	56.5035
878.753	68.3459
881.646	76.6847
884.538	84.2981
887.431	90.3298
890.324	93.7253
893.216	94.268
896.109	95.7317
899.002	92.7847
901.894	81.809
904.787	66.2182
907.68	42.8302
910.573	21.5445
913.465	8.08105
916.358	2.06451
919.251	0.33886
922.143	0.462669
925.036	0.685493
927.929	0.613865
930.822	0.970959
933.714	1.80563
936.607	1.46647
939.5	1.11657
942.392	0.317286
945.285	1.04855
948.178	0.984133
951.07	2.45659
953.963	4.04108
956.856	4.80431
959.749	5.82812
962.641	6.61231
965.534	8.16565
968.427	8.99716
971.319	9.27698
974.212	10.2991
977.105	11.0355
979.997	11.3433
982.89	11.4514
985.783	11.9153
988.676	11.4697
991.568	11.8267
994.461	9.88974
997.354	9.03498
1000.25	7.55783
1003.14	7.74957
1006.03	6.80914
1008.92	6.07425
1011.82	5.58935
1014.71	6.21998
1017.6	5.88284
1020.5	5.21928
1023.39	5.41624
1026.28	5.04495
1029.17	5.26793
1032.07	4.88391
1034.96	5.43769
1037.85	5.12679
1040.74	4.69325
1043.64	4.18248
1046.53	4.01424
1049.42	3.27419
1052.32	3.41745
1055.21	3.65232
1058.1	2.75338
1060.99	3.22856
1063.89	2.58678
1066.78	2.29699
1069.67	2.19017
1072.56	1.56028
1075.46	2.17607
1078.35	2.31096
1081.24	1.91769
1084.13	1.73724
1087.03	2.07408
1089.92	1.26445
1092.81	1.8803
1095.7	2.63436
1098.6	2.87877
1101.49	2.21839
1104.38	2.10368
1107.28	1.66179
1110.17	2.11275
1113.06	2.2093
1115.95	2.02738
1118.85	1.78235
1121.74	1.50919
1124.63	1.20496
1127.53	0.737154
1130.42	0.461691
1133.31	0.036638
1136.2	0.003325
1139.1	0.523794
1141.99	0.35401
1144.88	0.416866
1147.77	0.525364
1150.67	0.019894
1153.56	0.022848
1156.45	0.286283
1159.35	0.496071
1162.24	0.843607
1165.13	0.549238
1168.02	0.761404
1170.92	0.796946
1173.81	2.36238
1176.7	1.71171
1179.59	2.18506
1182.49	2.22646
1185.38	2.07928
1188.27	2.61334
1191.16	1.94871
1194.06	1.91614
1196.95	2.5572
1199.84	1.87142
1202.73	1.49427
1205.63	1.69143
1208.52	1.7042
1211.41	1.48554
1214.31	0.885279
1217.2	0.702023
1220.09	0.933676
1222.98	1.16946
1225.88	0.861015
1228.77	1.26645
1231.66	1.04038
1234.56	2.14664
1237.45	1.18074
1240.34	0.910221
1243.23	1.91449
1246.13	1.9381
1249.02	1.92864
1251.91	1.95704
1254.8	1.63671
1257.7	2.28243
1260.59	2.274
1263.48	1.95359
1266.38	2.4094
1269.27	1.93877
1272.16	2.04079
1275.05	1.77187
1277.95	1.66004
1280.84	1.08831
1283.73	1.18673
1286.62	0.273111
1289.52	0.460884
1292.41	0.417751
1295.3	0.167271
1298.19	0.381777
1301.09	0.155291
