Measurement: Raman, 514 nm, unoriented, Raman Data Processed
Mineral: Paragonite
Rruff sample: R050447
Ideal chemistry: NaAl_2_(Si_3_Al)O_10_(OH)_2_
Locality: Switzerland
Source: Marcus Origlieri
Description: White massive
Measured chemistry: (Na_0.81_K_0.17_Ca_0.02_)Al_2.00_(Si_2.98_Al_0.02_)O_10_(OH)_2_
Raman shift (cm-1)	intensity
101.732	0
104.516	115.483
107.3	45.685
110.082	2.862
112.864	153.075
115.644	549.814
118.424	636.473
121.203	598.806
123.981	393.951
126.758	281.252
129.534	290.189
132.309	296.377
135.083	268.52
137.857	384.388
140.63	326.798
143.401	327.598
146.172	325.621
148.942	353.678
151.711	361.653
154.48	440.478
157.247	465.098
160.013	403.459
162.779	360.508
165.544	363.367
168.308	379.578
171.07	460.111
173.833	455.034
176.594	477.087
179.354	414.652
182.114	466.719
184.872	629.248
187.63	673.904
190.387	895.549
193.143	1033.34
195.898	1260.32
198.652	1564.56
201.405	1645.2
204.158	1262.13
206.909	1166.38
209.66	973.97
212.41	812.811
215.159	937.884
217.907	1099.18
220.654	884.724
223.4	852.546
226.146	767.131
228.891	766.557
231.634	872.248
234.377	825.121
237.119	698.271
239.86	903.744
242.601	953.44
245.34	900.344
248.079	881.442
250.816	985.684
253.553	1359.09
256.289	1697.8
259.024	2452.84
261.758	3152.12
264.492	3712.61
267.224	4023.68
269.956	4124.16
272.687	3740.53
275.416	2868.86
278.146	2234.98
280.874	1839.71
283.601	1546.88
286.327	1038.43
289.053	836.324
291.778	908.527
294.502	765.236
297.225	571.514
299.947	454.111
302.668	379.307
305.389	461.672
308.108	326.283
310.827	316.852
313.545	124.658
316.262	269.877
318.978	264.109
321.693	248.82
324.408	244.309
327.121	271.021
329.834	162.736
332.546	242.699
335.257	192.609
337.967	130.988
340.677	82.57
343.385	150.744
346.093	142.547
348.799	67.709
351.505	159.969
354.21	100.014
356.915	22.779
359.618	161.373
362.321	175.209
365.022	177.689
367.723	259.287
370.423	395.17
373.122	316.1
375.821	679.037
378.518	817.336
381.215	741.678
383.91	872.117
386.605	873.412
389.299	863.52
391.992	846.195
394.685	1050.53
397.376	1261.49
400.067	1230.41
402.757	1171.03
405.446	1385.87
408.134	1327.83
410.821	1357.55
413.508	1034.96
416.193	1061.72
418.878	766.242
421.562	730.771
424.245	570.43
426.927	577.053
429.609	612.225
432.289	458.662
434.969	374.873
437.648	273.477
440.326	338.449
443.003	178.674
445.68	310.785
448.355	288.889
451.03	233.242
453.704	281.66
456.377	99.994
459.049	26.215
461.721	46.148
464.391	51.771
467.061	297.758
469.73	20.9
472.398	67.578
475.065	24.355
477.731	99.717
480.397	0.727
483.062	166.658
485.725	217.521
488.389	265.34
491.051	67.113
493.712	202.834
496.373	50.615
499.032	238.283
501.691	142.85
504.349	69.404
507.007	95.869
509.663	103.834
512.319	210.314
514.973	242.578
517.627	195.668
520.28	172.193
522.933	161.326
525.584	52.021
528.235	174.559
530.885	156.941
533.534	2.857
536.182	261.154
538.829	23.07
541.476	112.951
544.121	34.24
546.766	120.396
549.41	174.893
552.053	180.359
554.696	205.041
557.337	132.025
559.978	151.172
562.618	155.129
565.257	122.836
567.895	102.678
570.533	200.49
573.17	67.42
575.805	51.299
578.44	48.832
581.075	183.166
583.708	206.242
586.341	24.941
588.972	249.586
591.603	103.938
594.233	72.973
596.863	186.666
599.491	153.062
602.119	119.145
604.746	101.66
607.372	208.664
609.997	397.123
612.621	162.395
615.245	385.521
617.868	372.518
620.49	520.17
623.111	661.645
625.731	574.539
628.351	733.918
630.97	362.719
633.588	474.789
636.205	472.844
638.821	482.152
641.437	920.309
644.051	561.141
646.665	803.525
649.278	498.1
651.89	551.223
654.502	568.816
657.113	456.744
659.722	797.344
662.331	503.709
664.94	631.502
667.547	582.805
670.154	707.832
672.76	416.592
675.365	511.334
677.969	736.027
680.572	744.283
683.175	1004.59
685.777	1001.63
688.378	918.6
690.978	1365.92
693.577	1421.53
696.176	1544.98
698.774	1917.82
701.371	2107.23
703.967	1777.13
706.562	2373.63
709.157	1705.14
711.751	1357.19
714.344	1327.44
716.936	1421.28
719.527	1130.51
722.118	850.928
724.708	744.525
727.297	1049.19
729.885	852.562
732.472	655.219
735.059	549.85
737.645	839.77
740.23	1036.09
742.814	868.574
745.397	1238.65
747.98	847.566
750.562	1125.87
753.143	980.707
755.723	1252.05
758.303	1476.84
760.881	838.578
763.459	1133.86
766.036	745.625
768.613	377.674
771.188	782.283
773.763	802.842
776.337	580.428
778.91	413.062
781.482	436.078
784.054	318.494
786.625	564.551
789.195	530.555
791.764	345.361
794.332	186.143
796.9	252.566
799.467	31.246
802.033	220.613
804.598	540.178
807.163	410.383
809.726	240.246
812.289	343.926
814.851	401.312
817.413	111.43
819.973	335.301
822.533	201.977
825.092	157.961
827.65	244.66
830.208	75.938
832.764	66.566
835.32	206.625
837.875	114.461
840.429	199.133
842.983	126.59
845.536	373.898
848.088	141.988
850.639	93.012
853.189	34.121
855.739	270.215
858.288	86.383
860.836	168.301
863.383	133.016
865.93	69.387
868.475	317.59
871.02	119.473
873.564	140.34
876.108	163.094
878.65	439.703
881.192	249.184
883.733	338.438
886.274	167.648
888.813	521.711
891.352	272.652
893.89	209.523
896.427	116.309
898.964	119.164
901.499	329.492
