Measurement: Raman, 532 nm, unoriented, Raman Data Processed
Mineral: Parakeldyshite
Rruff sample: R120048
Ideal chemistry: Na_2_Zr^4+^Si_2_O_7_
Locality: Alluaiv Mt., Lovozero Massif, Kola Peninsula, Murmanskaja Oblast', Northern Region, Russia
Source: Donald Doell
Description: White massive
Raman shift (cm-1)	intensity
212.468	0
215.36	5.20996
218.253	25.3418
221.146	54.0664
224.038	156.136
226.931	210.25
229.824	309.639
232.717	345.442
235.609	441.646
238.502	436.665
241.395	383.772
244.287	395.095
247.18	429.766
250.073	419.357
252.965	343.413
255.858	308.554
258.751	278.753
261.644	227.811
264.536	228.973
267.429	223.666
270.322	257.782
273.214	271.88
276.107	253.26
279	208.215
281.892	140.412
284.785	24.1406
287.678	32.4043
290.571	4.00977
293.463	5.50195
296.356	8.7168
299.249	46.9199
302.141	66.832
305.034	68.8281
307.927	79.4824
310.82	80.8027
313.712	135.879
316.605	215.463
319.498	290.84
322.39	397.465
325.283	483.967
328.176	655.777
331.068	788.473
333.961	810.084
336.854	636.711
339.747	393.621
342.639	169.363
345.532	58.8867
348.425	45.4688
351.317	56.2695
354.21	45.9707
357.103	30.1367
359.995	7.20898
362.888	6.39258
365.781	28.7344
368.673	156.627
371.566	240.732
374.459	311.932
377.352	371.773
380.244	515.441
383.137	728.115
386.03	715.18
388.922	449.074
391.815	236.844
394.708	203.055
397.601	266.393
400.493	371.068
403.386	492.973
406.279	635.795
409.171	567.508
412.064	401.393
414.957	255.172
417.849	155.603
420.742	70.3281
423.635	53.4922
426.527	14.2324
429.42	41.7109
432.313	3.2832
435.206	18.9414
438.098	20.9316
440.991	26.1426
443.884	4.8125
446.776	38.918
449.669	47.041
452.562	26.3438
455.454	11.5781
458.347	50.0312
461.24	79.1406
464.133	41.0312
467.025	14.6367
469.918	2.77539
472.811	11.4316
475.703	67.4648
478.596	69.0527
481.489	53.9609
484.382	60.2285
487.274	67.7109
490.167	66.457
493.06	93.1504
495.952	113.301
498.845	138.83
501.738	129.231
504.63	149.947
507.523	175.152
510.416	230.566
513.308	177.262
516.201	114.061
519.094	67.084
521.987	50.4316
524.879	94.8516
527.772	127.982
530.665	87.334
533.557	88.7285
536.45	89.8496
539.343	122.961
542.236	173.428
545.128	127.607
548.021	106.533
550.914	152.24
553.806	135.981
556.699	54.0254
559.592	32.9922
562.484	30.9375
565.377	48.2598
568.27	36.5508
571.163	40.7168
574.055	49.1934
576.948	53.7578
579.841	93.7207
582.733	75.3672
585.626	52.4512
588.519	79.1836
591.411	110.269
594.304	98.2344
597.197	77.3301
600.09	75.2344
602.982	14.9434
605.875	6.57031
608.768	69.793
611.66	65.1875
614.553	16.8301
617.446	48.6387
620.338	25.3066
623.231	2.07617
626.124	19.2734
629.016	16.7949
631.909	16.4629
634.802	15.5098
637.695	20.2031
640.587	33.1465
643.48	27.1543
646.373	23
649.265	39.7129
652.158	35.9531
655.051	82.1777
657.943	60.7285
660.836	58.6719
663.729	37.7852
666.622	17.7402
669.514	32.8242
672.407	9.85156
675.3	37.084
678.192	31.5195
681.085	88.1777
683.978	77.8711
686.87	45.377
689.763	75.0527
692.656	118.6
695.549	89.043
698.441	96.9668
701.334	89.791
704.227	45.4512
707.119	115.797
710.012	190.148
712.905	232.227
715.798	261.84
718.69	278.754
721.583	269.294
724.476	204.463
727.368	171.321
730.261	137.356
733.154	109.905
736.046	66.5381
738.939	34.8613
741.832	1.87988
744.725	15.0605
747.617	1.97852
750.51	30.4961
753.403	71.3769
756.295	102.853
759.188	87.168
762.081	33.3525
764.973	50.1914
767.866	59.1973
770.759	45.0947
773.652	49.4082
776.544	31.7568
779.437	51.0625
782.33	48.5654
785.222	40.6953
788.115	6.5332
791.008	4.5166
793.9	40.5986
796.793	9.53223
799.686	6.48828
802.578	4.68555
805.471	11.9961
808.364	50.1309
811.257	2.98242
814.149	48.4395
817.042	70.5967
819.935	93.1318
822.827	78.2129
825.72	25.0898
828.613	15.9834
831.505	46.8935
834.398	38.4805
837.291	43.8145
840.184	63.8555
843.076	89.3603
845.969	95.1699
848.862	116.394
851.754	80.2998
854.647	84.2031
857.54	45.3018
860.433	64.8144
863.325	21.4229
866.218	8.6543
869.111	54.251
872.003	17.0547
874.896	39.6309
877.789	35.8447
880.681	14.794
883.574	79.4316
886.467	166.426
889.36	281.021
892.252	347.644
895.145	469.742
898.038	622.8
900.93	834.344
903.823	1106.48
906.716	1290.82
909.608	1083.01
912.501	692.345
915.394	422.232
918.287	309.323
921.179	216.637
924.072	191.603
926.965	222.558
929.857	249.642
932.75	227.304
935.643	271.007
938.535	406.16
941.428	506.54
944.321	439.533
947.213	306.592
950.106	156.871
952.999	128.168
955.892	71.7529
958.784	94.9775
961.677	139.542
964.57	295.166
967.462	419.421
970.355	581.733
973.248	614.447
976.14	452.624
979.033	329.18
981.926	234.626
984.819	114.088
987.711	78.2627
990.604	58.6924
993.497	28.3896
996.389	1.33496
999.282	23.8252
1002.17	12.916
1005.07	16.0068
1007.96	47.8848
1010.85	81.1064
1013.75	76.6934
1016.64	147.117
1019.53	228.458
1022.42	251.301
1025.32	153.579
1028.21	88.3721
1031.1	26.9951
1033.99	33.7402
1036.89	55.4688
1039.78	4.05469
1042.67	8.35352
1045.57	2.81641
1048.46	12.5312
1051.35	17.3975
1054.24	52.0342
1057.14	72.8144
1060.03	51.7002
1062.92	58.8457
1065.81	46.7578
1068.71	34.206
1071.6	55.0244
1074.49	3.20996
1077.38	13.5771
1080.28	18.04
1083.17	26.6689
1086.06	26.8066
1088.96	15.9775
1091.85	25.3682
1094.74	34.1387
1097.63	34.1621
1100.53	59.1924
1103.42	13.375
1106.31	31.1396
1109.2	28.0381
1112.1	91.0898
1114.99	73.5
1117.88	52.2373
1120.78	56.2715
1123.67	51.6592
1126.56	14.4756
1129.45	33.5605
1132.35	14.3076
1135.24	16.4434
1138.13	58.2188
1141.02	28.8574
1143.92	12.207
1146.81	27.8271
1149.7	30.8086
1152.6	34.581
1155.49	19.2393
1158.38	6.62598
1161.27	12.2393
1164.17	30.667
1167.06	57.7764
1169.95	3.41406
1172.84	34.9238
1175.74	37.7725
1178.63	30.207
1181.52	39.1885
1184.41	63.373
1187.31	66
1190.2	37.3945
1193.09	55.4238
1195.99	36.7715
1198.88	51.8242
1201.77	36.627
1204.66	45.4199
1207.56	82.1943
1210.45	88.251
1213.34	80.8223
1216.23	37.4209
1219.13	23.0029
1222.02	26.9893
1224.91	49.7188
1227.81	48.7422
1230.7	16.8828
1233.59	7.27637
1236.48	21.7285
1239.38	8.87891
1242.27	20.6934
1245.16	56.167
1248.05	27.4121
1250.95	18.125
1253.84	36.7275
1256.73	38.9844
1259.62	51.5986
1262.52	54.3584
1265.41	58.044
1268.3	41.7158
1271.2	25.3857
1274.09	36.9336
1276.98	28.6338
1279.87	10.3584
1282.77	18.8096
1285.66	12.8242
1288.55	7.98828
1291.44	11.2305
1294.34	33.7715
1297.23	23.5986
1300.12	32.6533
1303.02	0
