Measurement: Raman, 785 nm, unoriented, Raman Data Processed
Mineral: Pararsenolamprite
Rruff sample: R060772
Ideal chemistry: As
Locality: Mukuno mine, Ouita, Japan
Source: Michael Scott
Description: Dark grey metallic
Raman shift (cm-1)	intensity
165.4	0
168.293	4.59227
171.186	20.2743
174.078	6.07317
176.971	95.2999
179.864	153.089
182.756	209.088
185.649	319.916
188.542	300.522
191.435	381.008
194.327	407.88
197.22	468.09
200.113	480.983
203.005	420.847
205.898	392.518
208.791	358.681
211.684	359.562
214.576	343.967
217.469	375.843
220.362	398.092
223.254	424.927
226.147	453.839
229.04	451.824
231.932	417.151
234.825	345.595
237.718	432.157
240.611	512.66
243.503	541.674
246.396	550.485
249.289	516.338
252.181	466.295
255.074	358.584
257.967	234.227
260.859	117.783
263.752	20.5498
266.645	0.691999
269.538	6.63992
272.43	1.25768
275.323	3.02649
278.216	18.5435
281.108	6.04427
284.001	22.3488
286.894	11.6165
289.786	5.86064
292.679	14.2255
295.572	17.1564
298.464	21.7367
301.357	56.1883
304.25	67.7771
307.143	78.2544
310.035	88.7399
312.928	73.4572
315.821	106.233
318.713	101.511
321.606	40.0995
324.499	83.5143
327.392	96.9009
330.284	150.522
333.177	73.6869
336.07	124.913
338.962	123.174
341.855	73.3632
344.748	75.6034
347.64	79.1129
350.533	63.4025
353.426	8.21868
356.318	41.963
359.211	63.7962
362.104	4.03538
364.997	28.9152
367.889	3.19372
370.782	42.5314
373.675	9.14237
376.567	18.789
379.46	16.0562
382.353	20.5279
385.245	2.80467
388.138	33.8552
391.031	12.0295
393.924	33.9514
396.816	38.9698
399.709	9.12395
402.602	2.77983
405.494	19.2212
408.387	3.38461
411.28	26.2266
414.173	1.09586
417.065	2.56384
419.958	21.2356
422.851	7.22124
425.743	11.9147
428.636	13.8859
431.529	54.2567
434.421	14.1496
437.314	51.3697
440.207	28.8204
443.099	56.1747
445.992	2.6945
448.885	23.9626
451.778	0.062299
454.67	1.36494
457.563	45.034
460.456	22.6384
463.348	5.15324
466.241	41.9327
469.134	54.9535
472.026	58.3731
474.919	40.9707
477.812	14.2322
480.705	35.6294
483.597	50.2532
486.49	2.31075
489.383	3.20002
492.275	13.7689
495.168	60.1875
498.061	28.238
500.954	48.1808
503.846	43.8299
506.739	27.3545
509.632	36.2663
512.524	49.0817
515.417	58.4386
518.31	52.3893
521.202	57.3438
524.095	32.6549
526.988	15.6794
529.88	6.49559
532.773	15.0869
535.666	1.45808
538.559	15.9275
541.451	43.8962
544.344	2.61131
547.237	50.8426
550.129	34.9646
553.022	45.3033
555.915	49.0581
558.808	13.9195
561.7	83.4587
564.593	53.2802
567.486	46.4856
570.378	36.5103
573.271	62.5443
576.164	2.84728
579.056	17.0162
581.949	6.53067
584.842	22.5137
587.735	37.3957
590.627	38.976
593.52	81.1517
596.413	68.678
599.305	28.5389
602.198	51.1314
605.091	22.0832
607.983	41.0398
610.876	53.8333
613.769	6.56921
616.662	29.9907
619.554	3.43183
622.447	41.781
625.34	9.12693
628.232	16.3117
631.125	50.3282
634.018	30.4887
636.91	55.3133
639.803	39.4589
642.696	10.9247
645.588	48.6917
648.481	38.5096
651.374	20.0287
654.267	33.2373
657.159	1.03444
660.052	1.06459
662.945	12.2179
665.837	11.0639
668.73	10.6821
671.623	38.8181
674.515	8.92983
677.408	31.5546
680.301	51.1481
683.194	72.5817
686.086	46.0728
688.979	1.89851
691.872	48.875
694.764	24.3122
697.657	10.023
700.55	14.4455
703.442	14.8869
706.335	0.358843
709.228	0.114455
712.121	32.2115
715.013	28.9706
717.906	19.7358
720.799	29.7134
723.691	17.346
726.584	6.02668
729.477	32.1733
732.37	28.2715
735.262	7.23252
738.155	1.91525
741.048	14.8737
743.94	11.481
746.833	44.6705
749.726	4.60416
752.618	21.4697
755.511	0.865898
758.404	1.74749
761.297	24.5555
764.189	46.9093
767.082	28.0466
769.975	22.4703
772.867	31.5121
775.76	40.3133
778.653	9.09994
781.545	23.5278
784.438	2.70553
787.331	20.3033
790.223	41.7331
793.116	45.4346
796.009	12.7004
798.902	12.5994
801.794	31.829
804.687	19.7913
807.58	25.5742
810.472	28.0064
813.365	0.351928
816.258	1.74236
819.15	15.1024
822.043	1.20687
824.936	26.213
827.829	32.5907
830.721	52.0189
833.614	57.9231
836.507	11.7704
839.399	33.1702
842.292	58.2864
845.185	54.0344
848.077	66.3105
850.97	58.2943
853.863	24.246
856.756	0.549641
859.648	2.46082
862.541	24.4718
865.434	29.1255
868.326	9.88334
871.219	20.1154
874.112	1.86024
877.005	41.1121
879.897	17.7314
882.79	27.6021
885.683	49.3788
888.575	22.2488
891.468	20.833
894.361	0.73645
897.253	0.207951
900.146	2.34874
903.039	42.7392
905.932	43.9318
908.824	26.1739
911.717	105.616
914.61	11.4644
917.502	22.6572
920.395	70.3338
923.288	28.2265
926.18	25.927
929.073	2.90403
931.966	10.2837
934.859	0.231074
937.751	5.73244
940.644	4.48397
943.537	14.0646
946.429	5.74279
949.322	47.0214
952.215	50.1679
955.107	41.2541
958	45.9663
960.893	12.7886
963.785	22.4838
966.678	41.977
969.571	40.9185
972.464	24.8622
975.356	2.98874
978.249	22.5246
981.142	32.0213
984.034	29.9866
986.927	43.8982
989.82	4.51522
992.712	61.5908
995.605	48.6402
998.498	50.0337
1001.39	34.223
1004.28	31.8887
1007.18	10.276
1010.07	21.32
1012.96	1.188
1015.85	0.317416
1018.75	50.4584
1021.64	2.67289
1024.53	12.0857
1027.42	41.1286
1030.32	24.5905
1033.21	4.81229
1036.1	31.2372
1039	45.1675
1041.89	35.4059
1044.78	0.225405
1047.67	1.89926
1050.57	0.617614
1053.46	13.3168
1056.35	4.14624
1059.24	51.956
1062.14	42.0028
1065.03	38.8318
1067.92	42.8462
1070.82	69.9505
1073.71	36.9065
1076.6	17.4945
1079.49	62.4473
1082.39	18.0126
1085.28	20.3186
1088.17	20.3233
1091.06	0.619356
1093.96	7.75268
1096.85	30.375
1099.74	25.7429
1102.63	45.814
1105.53	77.7025
1108.42	61.3288
1111.31	46.4204
1114.21	46.4105
1117.1	46.7573
1119.99	1.18299
1122.88	9.8308
1125.78	58.8881
1128.67	2.75199
1131.56	21.1946
1134.45	58.6227
1137.35	19.2963
1140.24	29.3357
1143.13	48.3155
1146.03	62.8332
1148.92	50.0617
1151.81	26.6208
1154.7	13.5685
1157.6	23.4499
1160.49	17.9115
1163.38	0.020219
1166.27	8.29462
1169.17	55.3946
1172.06	46.5824
1174.95	38.3155
1177.85	36.7597
1180.74	62.3811
1183.63	56.1474
1186.52	38.7471
1189.42	43.2848
1192.31	44.1732
1195.2	18.9626
1198.09	19.0752
1200.99	14.3779
1203.88	15.4507
1206.77	9.77057
1209.66	30.3794
1212.56	59.166
1215.45	35.9985
1218.34	0.448729
1221.24	35.7216
1224.13	60.024
1227.02	22.2114
1229.91	55.448
1232.81	31.3601
1235.7	3.30974
1238.59	16.05
1241.48	9.40728
1244.38	2.15716
1247.27	75.0302
1250.16	41.1003
1253.06	31.7963
1255.95	33.8772
1258.84	0.687199
1261.73	29.5886
1264.63	54.7284
1267.52	5.61428
1270.41	16.4285
