Measurement: Raman, 532 nm, unoriented, Raman Data Processed
Mineral: Paramontroseite
Rruff sample: R050391
Ideal chemistry: V^4+^O_2_
Locality: J.J. mine, Buell Canyon District, Montrose County, Colorado, USA
Source: University of Arizona Mineral Museum
Description: Black massive, radioactive
Measured chemistry: gray phase: (V^4+^_0.82_Fe^3+^_0.09_U^6+^_0.04_V^5+^_0.03_Al_0.02_)_Î£=1_O_2_; lightest phase is uranophane
Raman shift (cm-1)	intensity
133.752	0
137.127	701.117
140.502	1748.13
143.876	1659.41
147.251	1102.37
150.626	677.361
154.001	605.829
157.376	405.189
160.75	235.177
164.125	64.178
167.5	29.4048
170.875	21.9314
174.25	11.6843
177.625	19.0684
180.999	20.6377
184.374	57.331
187.749	46.5737
191.124	56.561
194.499	31.5115
197.874	2.48169
201.248	11.7058
204.623	26.6177
207.998	48.7602
211.373	44.7598
214.748	0.939697
218.122	61.0176
221.497	91.6128
224.872	122.859
228.247	163.519
231.622	192.357
234.996	232.737
238.371	229.815
241.746	291.983
245.121	349.722
248.496	412.121
251.871	505.287
255.245	608.004
258.62	686.29
261.995	858.197
265.37	996.3
268.745	1100.67
272.12	1244.51
275.494	1411.74
278.869	1575.96
282.244	1596.16
285.619	1346.01
288.994	1159.94
292.368	1045.85
295.743	940.582
299.118	842.631
302.493	739.068
305.868	618.939
309.243	530.46
312.617	441.877
315.992	266.619
319.367	277.091
322.742	217.538
326.117	152.407
329.491	113.884
332.866	112.231
336.241	70.1802
339.616	63.7227
342.991	53.8018
346.365	28.9206
349.74	9.29712
353.115	25.0715
356.49	4.99561
359.865	4.59985
363.24	54.6948
366.614	10.4543
369.989	7.35229
373.364	44.1958
376.739	43.9565
380.114	62.7407
383.488	121.505
386.863	190.674
390.238	240.403
393.613	369.665
396.988	492.437
400.363	578.59
403.737	637.311
407.112	579.758
410.487	426.361
413.862	305.164
417.237	261.964
420.611	192.599
423.986	65.7537
427.361	69.6977
430.736	33.863
434.111	15.6123
437.486	18.5791
440.86	19.1414
444.235	20.8928
447.61	101.927
450.985	16.0872
454.36	100.305
457.735	117.493
461.109	150.355
464.484	232.872
467.859	159.368
471.234	208.399
474.609	247.41
477.983	152.385
481.358	199.328
484.733	232.62
488.108	251.301
491.483	230.519
494.858	295.438
498.232	320.596
501.607	355.734
504.982	388.91
508.357	401.307
511.732	467.358
515.106	471.265
518.481	431.988
521.856	503.408
525.231	420.184
528.606	455.741
531.981	402.487
535.355	336.383
538.73	278.31
542.105	205.247
545.48	208.432
548.855	180.712
552.229	143.473
555.604	116.591
558.979	80.9385
562.354	56.3572
565.729	48.1973
569.104	52.5964
572.478	15.6377
575.853	6.93335
579.228	31.5325
582.603	12.6167
585.978	4.78052
589.352	4.38818
592.727	9.93579
596.102	10.2307
599.477	17.4011
602.852	30.602
606.227	27.3367
609.601	25.9463
612.976	50.5601
616.351	4.57788
619.726	63.9355
623.101	56.2637
626.476	34.3127
629.85	96.4072
633.225	134.764
636.6	81.8267
639.975	129.039
643.35	158.661
646.724	165.992
650.099	213.122
653.474	195.09
656.849	227.967
660.224	288.827
663.598	328.19
666.973	384.038
670.348	441.586
673.723	523.059
677.098	555.625
680.472	611.971
683.847	682.917
687.222	627.23
690.597	676.546
693.972	651.359
697.347	553.25
700.721	510.347
704.096	465.875
707.471	424.033
710.846	307.608
714.221	285.18
717.596	212.105
720.97	164.692
724.345	133.837
727.72	111.41
731.095	105.609
734.47	102.698
737.844	9.42578
741.219	35.2732
744.594	47.5601
747.969	66.1157
751.344	14.7361
754.719	9.45483
758.093	1.25488
761.468	1.36816
764.843	10.418
768.218	48.6294
771.593	9.1001
774.967	6.50244
778.342	29.5327
781.717	44.0547
785.092	17.6338
788.467	23.0547
791.842	2.83887
795.216	25.0918
798.591	53.5044
801.966	10.6148
805.341	2.78076
808.716	24.5601
812.091	39.4805
815.465	50.7432
818.84	19.7659
822.215	36.2105
825.59	18.6633
828.965	17.355
832.339	37.0127
835.714	42.2744
839.089	42.1003
842.464	10.7549
845.839	35.054
849.213	54.9512
852.588	57.2993
855.963	67.2996
859.338	8.24365
862.713	13.8027
866.087	10.363
869.462	26.98
872.837	23.2566
876.212	29.4141
879.587	26.1548
882.962	3.6709
886.337	20.5593
889.711	42.5828
893.086	20.6321
896.461	18.887
899.836	60.7058
903.211	37.9954
906.585	75.7634
909.96	41.4355
913.335	92.8303
916.71	69.5276
920.085	86.3418
923.46	82.7449
926.834	96.4089
930.209	67.3088
933.584	68.3586
936.959	52.9861
940.334	69.5115
943.708	57.5896
947.083	15.2617
950.458	38.77
953.833	41.2432
957.208	53.5491
960.582	50.5007
963.957	72.0857
967.332	61.6455
970.707	138.022
974.082	205.937
977.457	338.397
980.831	694.603
984.206	903.609
987.581	1186.74
990.956	1097.8
994.331	791.622
997.705	478.896
1001.08	306.822
1004.46	224.395
1007.83	173.72
1011.21	183.691
1014.58	155.953
1017.95	95.8635
1021.33	113.641
1024.7	120.507
1028.08	113.697
1031.45	94.4033
1034.83	74.5915
1038.2	10.5264
1041.58	7.91894
1044.95	29.8704
1048.33	35.3611
1051.7	23.5479
1055.08	36.7102
1058.45	7.78564
1061.83	1.71118
1065.2	36.2678
1068.58	44.3342
1071.95	69.1799
1075.33	45.3403
1078.7	67.3042
1082.08	19.4165
1085.45	9.46851
1088.83	8.6499
1092.2	78.4856
1095.58	16.9111
1098.95	53.5366
1102.33	55.4477
1105.7	82.0535
1109.07	77.1667
1112.45	68.1555
1115.82	40.8477
1119.2	24.7886
1122.57	28.1423
1125.95	72.884
1129.32	53.0364
1132.7	5.54053
1136.07	51.9668
1139.45	34.8765
1142.82	8.33276
1146.2	21.4094
1149.57	31.0574
1152.95	30.9709
1156.32	36.9441
1159.7	20.8484
1163.07	4.51856
1166.45	18.6074
1169.82	63.5093
1173.2	37.7581
1176.57	33.9853
1179.95	7.18457
1183.32	32.9085
1186.69	9.90552
1190.07	27.3018
1193.44	35.0034
1196.82	48.2554
1200.19	46.6018
1203.57	3.59692
1206.94	3.77954
1210.32	15.4277
1213.69	60.3308
1217.07	39.3452
1220.44	13.0476
1223.82	47.5776
1227.19	73.8569
1230.57	13.2258
1233.94	15.1587
1237.32	14.698
1240.69	10.6245
1244.07	24.3142
1247.44	7.67969
1250.82	4.93677
1254.19	34.8406
1257.57	29.7068
1260.94	41.0684
1264.32	41.1511
1267.69	14.7268
1271.07	39.8389
1274.44	47.3242
1277.82	59.0591
1281.19	35.3848
1284.57	28.3848
1287.94	4.14478
1291.32	2.32495
1294.69	18.1404
1298.06	24.2275
1301.44	62.5955
1304.81	52.7805
1308.19	6.53613
1311.56	17.4023
1314.94	10.1834
