Measurement: Raman, 532 nm, unoriented, Raman Data Processed
Mineral: Pararsenolamprite
Rruff sample: R060772
Ideal chemistry: As
Locality: Mukuno mine, Ouita, Japan
Source: Michael Scott
Description: Dark grey metallic
Raman shift (cm-1)	intensity
126.344	0
129.719	54.6397
133.094	47.2784
136.469	3.41339
139.843	30.9553
143.218	81.07
146.593	54.9244
149.968	34.3289
153.343	14.3695
156.718	18.3575
160.092	48.3735
163.467	63.2772
166.842	86.0989
170.217	101.173
173.592	202.869
176.966	231.695
180.341	327.968
183.716	348.881
187.091	426.429
190.466	479.957
193.84	495.888
197.215	575.722
200.59	568.945
203.965	530.567
207.34	575.342
210.714	543.092
214.089	524.851
217.464	483.15
220.839	544.312
224.214	539.135
227.589	527.878
230.963	519.165
234.338	560.726
237.713	625.919
241.088	780.418
244.463	779.637
247.838	821.873
251.212	814.902
254.587	740.142
257.962	577.626
261.337	329.589
264.712	203.022
268.086	183.228
271.461	133.429
274.836	152.476
278.211	100.287
281.586	10.8234
284.96	18.0254
288.335	0.073425
291.71	5.60388
295.085	26.5319
298.46	19.6162
301.834	40.5015
305.209	10.6171
308.584	10.5067
311.959	29.1331
315.334	23.9634
318.709	1.37457
322.083	0.501221
325.458	10.9708
328.833	48.5029
332.208	34.5301
335.583	39.2747
338.957	38.9354
342.332	25.1119
345.707	63.5157
349.082	60.0687
352.457	18.4005
355.832	20.5586
359.206	27.1591
362.581	12.3339
365.956	37.1457
369.331	48.9138
372.706	19.2399
376.08	17.3408
379.455	21.6148
382.83	45.2313
386.205	42.704
389.58	44.7661
392.954	43.6403
396.329	33.609
399.704	7.44128
403.079	39.041
406.454	9.33618
409.829	45.8363
413.203	6.60742
416.578	35.5687
419.953	11.7415
423.328	54.471
426.703	59.1329
430.077	82.9753
433.452	38.9156
436.827	73.2504
440.202	61.2454
443.577	49.1175
446.952	18.16
450.326	46.6195
453.701	19.0175
457.076	51.0332
460.451	42.7598
463.826	29.4905
467.2	72.363
470.575	71.2646
473.95	75.8622
477.325	29.1585
480.7	64.7398
484.074	59.3521
487.449	4.87408
490.824	1.13977
494.199	41.0078
497.574	42.2397
500.949	34.5491
504.323	54.9875
507.698	49.6199
511.073	59.0339
514.448	77.5422
517.823	74.0872
521.197	105.242
524.572	43.1247
527.947	48.8534
531.322	36.0917
534.697	22.7989
538.072	12.677
541.446	5.3045
544.821	14.744
548.196	59.9772
551.571	44.8048
554.946	69.432
558.32	63.7276
561.695	60.3857
565.07	73.4179
568.445	20.9883
571.82	46.9312
575.194	28.0254
578.569	17.9094
581.944	15.0737
585.319	5.2818
588.694	47.8318
592.068	36.6161
595.443	60.1083
598.818	46.2955
602.193	33.693
605.568	58.5031
608.942	35.7781
612.317	25.8604
615.692	25.3088
619.067	23.0218
622.442	1.33173
625.817	35.0783
629.191	18.4275
632.566	17.4759
635.941	93.2985
639.316	51.3246
642.691	83.1383
646.066	82.6724
649.44	91.4522
652.815	50.0851
656.19	31.553
659.565	51.8137
662.94	6.74793
666.314	17.8657
669.689	34.931
673.064	48.6212
676.439	56.3258
679.814	34.7779
683.188	80.8944
686.563	69.1096
689.938	77.4526
693.313	43.6402
696.688	70.5934
700.062	81.5972
703.437	40.7374
706.812	49.1852
710.187	56.1188
713.562	50.9077
716.937	46.1902
720.311	97.9742
723.686	83.4924
727.061	77.3464
730.436	63.0413
733.811	40.3837
737.185	29.8983
740.56	61.1844
743.935	42.3344
747.31	81.9376
750.685	82.6138
754.059	33.4817
757.434	78.6236
760.809	40.2154
764.184	80.4373
767.559	98.318
770.934	79.5992
774.308	65.9854
777.683	78.2662
781.058	55.1824
784.433	32.1755
787.808	60.2647
791.183	51.1187
794.557	64.3183
797.932	67.634
801.307	86.0679
804.682	28.3297
808.057	58.5955
811.431	63.3456
814.806	83.5247
818.181	72.709
821.556	7.04852
824.931	18.0759
828.305	24.7358
831.68	11.8343
835.055	37.4493
838.43	14.2963
841.805	94.5856
845.179	59.2304
848.554	75.6753
851.929	87.1821
855.304	86.8133
858.679	66.9824
862.053	50.5525
865.428	47.8725
868.803	24.5979
872.178	21.8544
875.553	7.16388
878.928	29.425
882.302	25.0496
885.677	37.3733
889.052	81.3434
892.427	61.8951
895.802	48.3253
899.177	38.6802
902.551	62.2043
905.926	30.3738
909.301	12.4253
912.676	5.26196
916.051	23.8703
919.425	14.7947
922.8	48.9501
926.175	41.7201
929.55	39.3796
932.925	88.2277
936.299	43.6345
939.674	30.0941
943.049	23.5026
946.424	25.7487
949.799	13.0637
953.173	0.944275
956.548	16.9376
959.923	75.8006
963.298	60.0341
966.673	62.6334
970.048	43.6968
973.422	33.0153
976.797	56.8483
980.172	8.13379
983.547	3.49817
986.922	7.42364
990.296	33.8365
993.671	33.4875
997.046	42.9785
1000.42	59.5142
1003.8	16.1345
1007.17	69.4865
1010.54	56.4305
1013.92	59.1161
1017.29	21.7707
1020.67	69.0624
1024.05	2.4931
1027.42	37.8376
1030.79	84.466
1034.17	15.8934
1037.54	24.8168
1040.92	58.6788
1044.29	58.9471
1047.67	50.5508
1051.04	32.8472
1054.42	87.166
1057.79	34.8751
1061.17	1.54181
1064.54	29.2849
1067.92	14.563
1071.29	19.7294
1074.67	13.6782
1078.04	50.6667
1081.42	66.8834
1084.79	22.3168
1088.17	90.6232
1091.54	2.18066
1094.92	63.5953
1098.29	63.3773
1101.66	39.6632
1105.04	44.513
1108.41	42.0812
1111.79	29.2284
1115.16	8.64587
1118.54	61.883
1121.91	57.46
1125.29	92.2128
1128.66	74.1325
1132.04	62.2659
1135.41	50.598
1138.79	40.414
1142.16	33.7663
1145.54	24.6152
1148.91	16.1229
1152.29	53.3366
1155.66	70.0108
1159.04	60.1707
1162.41	59.4976
1165.79	51.8553
1169.16	7.99579
1172.54	51.1935
1175.91	29.1913
1179.29	27.7017
1182.66	26.874
1186.04	10.2862
1189.41	32.1874
1192.79	1.19519
1196.16	62.4855
1199.54	60.6625
1202.91	57.0324
1206.29	50.8801
1209.66	51.0821
1213.03	82.0058
1216.41	43.3035
1219.78	41.1624
1223.16	31.7576
1226.53	45.5104
1229.91	33.283
1233.28	60.6212
1236.66	106.483
1240.03	70.9249
1243.41	6.30292
1246.78	36.3014
1250.16	26.7136
1253.53	50.259
1256.91	21.8196
1260.28	39.9227
1263.66	15.6669
1267.03	3.42139
1270.41	73.6101
1273.78	93.2995
1277.16	92.2839
1280.53	78.6848
1283.9	47.9811
1287.28	81.0995
1290.65	29.6659
1294.03	16.1752
1297.4	5.30719
