Measurement: Raman, 780 nm, unoriented, Raman Data Processed
Mineral: Parasibirskite
Rruff sample: R110009
Ideal chemistry: CaHBO_3_
Locality: Synthetic
Source: Jin-Xiao Mi
Description: Loose aggregate of colorless tabular crystals, mixed with CaLiBO3 crystals (R110010)
Raman shift (cm-1)	intensity
179.315	0
182.208	2.04748
185.1	2.21698
187.993	1.23889
190.886	0.835938
193.778	1.97305
196.671	3.57608
199.564	2.40991
202.457	2.81485
205.349	4.58215
208.242	0.799927
211.135	0.065582
214.027	0.866333
216.92	1.42877
219.813	1.72138
222.705	1.17837
225.598	2.57983
228.491	2.75149
231.383	5.90903
234.276	5.77435
237.169	13.3921
240.061	19.8352
242.954	31.4789
245.847	37.8337
248.74	43.3089
251.632	44.2205
254.525	41.7216
257.418	43.1273
260.31	39.7258
263.203	27.7532
266.096	17.7016
268.988	12.3984
271.881	6.42398
274.774	5.62982
277.667	7.20941
280.559	9.04614
283.452	6.4913
286.345	6.39377
289.237	6.82639
292.13	8.58032
295.023	3.21967
297.916	8.69302
300.808	5.06802
303.701	3.88086
306.594	3.93326
309.486	4.26993
312.379	3.14941
315.272	3.57535
318.164	2.60315
321.057	0.248413
323.95	5.01825
326.842	0.950409
329.735	1.91596
332.628	0.167145
335.521	1.72345
338.413	0.904968
341.306	2.48117
344.199	4.41284
347.091	2.5481
349.984	2.76028
352.877	1.30707
355.769	2.06372
358.662	3.66418
361.555	7.78943
364.447	3.68133
367.34	6.69485
370.233	6.46439
373.126	7.02707
376.018	7.84311
378.911	5.86493
381.804	10.4772
384.696	8.73798
387.589	13.0034
390.482	7.97168
393.375	9.32169
396.267	12.6622
399.16	12.312
402.053	15.9778
404.945	17.5636
407.838	17.003
410.731	17.5027
413.623	20.5581
416.516	22.4445
419.409	21.6556
422.301	21.6484
425.194	23.3372
428.087	22.6908
430.98	24.6182
433.872	26.8679
436.765	23.8543
439.658	23.834
442.55	25.0037
445.443	23.4327
448.336	22.8238
451.228	22.0915
454.121	21.1309
457.014	17.4752
459.907	17.6597
462.799	17.9209
465.692	15.7456
468.585	15.5194
471.477	14.2236
474.37	12.1612
477.263	10.1244
480.156	10.232
483.048	10.1596
485.941	9.71719
488.834	8.68893
491.726	5.42908
494.619	2.16135
497.512	3.23447
500.404	0.662292
503.297	3.40601
506.19	0.252563
509.082	1.42221
511.975	0.396851
514.868	2.22748
517.761	3.49869
520.653	2.08646
523.546	1.16458
526.439	4.82098
529.331	5.66693
532.224	4.58591
535.117	4.70499
538.01	10.2905
540.902	13.0351
543.795	10.8472
546.688	10.5696
549.58	17.4869
552.473	17.4633
555.366	18.3297
558.258	18.4149
561.151	19.1159
564.044	12.1842
566.936	12.645
569.829	14.4564
572.722	18.1611
575.615	12.4906
578.507	9.5228
581.4	11.9239
584.293	9.05429
587.185	13.0987
590.078	9.59238
592.971	16.5309
595.863	14.7344
598.756	15.0434
601.649	17.995
604.542	15.4533
607.434	9.40042
610.327	5.05783
613.22	5.10004
616.112	1.47751
619.005	0.660889
621.898	2.17438
624.79	5.4339
627.683	4.96887
630.576	0.408112
633.468	3.28912
636.361	0.967316
639.254	5.298
642.146	1.04263
645.039	0.054749
647.932	2.54642
650.825	3.43601
653.717	2.02661
656.61	4.02933
659.503	0.247284
662.395	1.01093
665.288	0.226959
668.181	1.57062
671.073	1.21463
673.966	1.99084
676.859	1.62125
679.752	0.71051
682.644	1.32935
685.537	2.58432
688.43	4.52502
691.322	4.46533
694.215	0.221527
697.108	2.08108
700	2.73666
702.893	2.78586
705.786	0.18808
708.679	3.93662
711.571	2.74893
714.464	0.065857
717.357	0.556946
720.249	4.33081
723.142	3.15778
726.035	1.37454
728.928	2.40158
731.82	4.16016
734.713	1.43655
737.606	1.19736
740.498	4.22766
743.391	5.63242
746.284	2.76013
749.176	6.04498
752.069	3.09851
754.962	6.60342
757.855	6.22314
760.747	8.60428
763.64	6.79352
766.533	6.64273
769.425	11.8426
772.318	10.7281
775.211	10.5415
778.103	10.1207
780.996	11.4758
783.889	12.6589
786.782	10.3884
789.674	9.6423
792.567	15.9215
795.46	13.2989
798.352	15.2044
801.245	21.7468
804.138	23.9488
807.03	34.5226
809.923	41.1193
812.816	44.3922
815.708	25.5438
818.601	17.4022
821.494	16.08
824.386	9.76736
827.279	6.01788
830.172	7.00299
833.065	20.596
835.957	13.216
838.85	15.829
841.743	16.3642
844.635	8.82309
847.528	4.27557
850.421	0.69635
853.313	2.53598
856.206	3.13962
859.099	2.51791
861.992	0.859528
864.884	0.760498
867.777	1.707
870.67	0.911591
873.562	2.38531
876.455	1.25244
879.348	1.37708
882.24	0.019348
885.133	6.71405
888.026	5.34143
890.919	9.00351
893.811	27.3902
896.704	44.7748
899.597	55.7184
902.489	56.891
905.382	51.1926
908.275	31.7151
911.168	12.5134
914.06	5.86572
916.953	8.51984
919.846	0.070313
922.738	1.44693
925.631	1.45032
928.524	4.14722
931.416	5.80872
934.309	1.98538
937.202	2.0286
940.095	2.45178
942.987	3.95044
945.88	2.58264
948.773	5.5271
951.665	4.49911
954.558	7.90985
957.451	6.96017
960.343	7.24026
963.236	8.81134
966.129	14.1121
969.021	10.6235
971.914	8.63724
974.807	8.14584
977.699	7.59631
980.592	19.4047
983.485	17.4678
986.378	10.8167
989.27	14.3909
992.163	13.7531
995.056	11.4099
997.948	7.42789
1000.84	4.08936
1003.73	3.60028
1006.63	3.7132
1009.52	0.874084
1012.41	3.12042
1015.3	0.344238
1018.2	2.61533
1021.09	0.564728
1023.98	2.60098
1026.88	0.160065
1029.77	7.14627
1032.66	1.49234
1035.55	4.92532
1038.45	5.84103
1041.34	5.09262
1044.23	9.72882
1047.12	9.6131
1050.02	9.75772
1052.91	9.83533
1055.8	15.3423
1058.69	19.8997
1061.59	14.1489
1064.48	17.2576
1067.37	16.6332
1070.27	18.1323
1073.16	16.8356
1076.05	23.0715
1078.94	21.3864
1081.84	23.4217
1084.73	23.4836
1087.62	33.3378
1090.52	26.4855
1093.41	35.5071
1096.3	28.8233
1099.19	30.5966
1102.09	35.0145
1104.98	28.1561
1107.87	35.3977
1110.76	27.3641
1113.66	21.8271
1116.55	19.072
1119.44	19.3274
1122.33	19.1837
1125.23	18.871
1128.12	19.3726
1131.01	8.72723
1133.9	4.86615
1136.8	6.67041
1139.69	7.9126
1142.58	3.74548
1145.48	0.453064
1148.37	0.799622
1151.26	0.167114
1154.15	0.412292
1157.05	1.73486
1159.94	1.2688
1162.83	0.107117
1165.72	2.284
1168.62	4.3562
1171.51	3.62439
1174.4	4.0882
1177.3	0.553223
1180.19	7.98657
1183.08	1.33716
1185.97	7.77026
1188.87	4.6131
1191.76	5.42859
1194.65	4.89648
1197.55	6.17303
1200.44	7.22308
1203.33	15.2141
1206.22	9.58197
1209.12	8.78748
1212.01	7.1427
1214.9	9.40723
1217.79	7.8634
1220.69	8.61163
1223.58	15.43
1226.47	29.9009
1229.36	9.00952
1232.26	11.9449
1235.15	15.8997
1238.04	15.4964
1240.93	15.1934
1243.83	21.7258
1246.72	17.4916
1249.61	13.0363
1252.51	14.3664
1255.4	7.64417
1258.29	11.0143
1261.18	10.2101
1264.08	25.8178
1266.97	12.9196
1269.86	7.82495
1272.76	13.533
1275.65	8.18353
1278.54	1.47296
1281.43	4.8446
1284.33	0.410522
