Measurement: Raman, 532 nm, unoriented, Raman Data Processed
Mineral: Parapierrotite
Rruff sample: R060397
Ideal chemistry: TlSb_5_S_8_
Locality: Lookout Pass Area, southeast Tooele County, Utah, USA
Source: Michael Scott
Description: Black semimetallic fragment
Raman shift (cm-1)	intensity
179.263	0
182.155	0.356358
185.048	0.107147
187.941	1.07903
190.833	2.71446
193.726	0.079308
196.619	2.80688
199.512	0.397587
202.404	1.58516
205.297	5.10125
208.19	6.3777
211.082	7.22702
213.975	8.02274
216.868	10.869
219.761	15.5344
222.653	15.7466
225.546	17.7892
228.439	18.3061
231.331	19.2014
234.224	16.3958
237.117	13.833
240.009	11.9984
242.902	9.89893
245.795	10.4652
248.688	8.57412
251.58	4.93869
254.473	5.2988
257.366	5.92716
260.258	9.04384
263.151	7.56539
266.044	6.01761
268.936	8.74178
271.829	10.2873
274.722	11.9732
277.615	8.51479
280.507	7.61607
283.4	6.96317
286.293	7.13636
289.185	9.19687
292.078	11.0049
294.971	10.2608
297.863	12.2281
300.756	16.1766
303.649	19.2254
306.541	23.3913
309.434	26.3763
312.327	25.7994
315.22	19.7118
318.112	16.0481
321.005	18.0008
323.898	16.2255
326.791	13.1358
329.683	12.21
332.576	13.2849
335.469	9.78201
338.361	6.40782
341.254	3.80044
344.147	2.35256
347.039	2.21351
349.932	1.69113
352.825	0.062128
355.717	1.42138
358.61	2.78477
361.503	1.2822
364.396	1.90796
367.288	1.24514
370.181	1.84773
373.074	0.999117
375.966	1.0172
378.859	0.197842
381.752	2.05348
384.644	1.83837
387.537	1.16276
390.43	2.96038
393.323	1.81914
396.215	2.99761
399.108	2.78037
402.001	0.174961
404.894	2.37427
407.786	3.60094
410.679	1.51435
413.572	2.02586
416.464	3.0215
419.357	1.84552
422.25	2.0392
425.142	1.43258
428.035	3.66127
430.928	1.90534
433.82	2.81097
436.713	3.06021
439.606	3.77589
442.499	1.26412
445.391	2.32667
448.284	2.5932
451.177	0.802333
454.069	1.78343
456.962	4.25733
459.855	4.72852
462.748	3.7467
465.64	3.00176
468.533	1.3394
471.426	2.0089
474.318	1.59906
477.211	2.96572
480.104	2.4502
482.996	4.09397
485.889	2.74436
488.782	3.24724
491.675	3.66825
494.567	3.09205
497.46	1.67122
500.353	2.98426
503.245	1.58823
506.138	2.80777
509.031	2.20515
511.923	2.64751
514.816	2.79699
517.709	3.65819
520.602	2.44814
523.494	1.03646
526.387	0.424652
529.28	2.77135
532.172	1.64857
535.065	1.74727
537.958	1.33597
540.851	1.40321
543.743	1.63863
546.636	3.23137
549.529	0.194259
552.421	1.942
555.314	1.53704
558.207	1.5
561.099	1.41875
563.992	2.81642
566.885	0.548969
569.778	1.70984
572.67	0.733572
575.563	1.85322
578.456	1.43208
581.348	2.59668
584.241	1.79371
587.134	1.04249
590.027	0.06631
592.919	1.51404
595.812	1.80057
598.705	0.974955
601.597	2.10282
604.49	0.321807
607.383	1.14242
610.275	2.24035
613.168	1.05424
616.061	0.864515
618.953	0.129295
621.846	1.80405
624.739	0.689648
627.632	3.50797
630.524	2.60349
633.417	1.51237
636.31	2.15489
639.202	0.520144
642.095	1.94727
644.988	1.83274
647.881	0.04485
650.773	3.65076
653.666	1.93761
656.559	1.98627
659.451	0.646528
662.344	1.55614
665.237	2.22767
668.13	4.2497
671.022	2.52565
673.915	2.5988
676.808	1.28643
679.7	1.51452
682.593	0.976333
685.486	1.95691
688.378	0.376801
691.271	2.85553
694.164	0.614536
697.057	0.002652
699.949	1.02763
702.842	0.65861
705.735	1.52879
708.627	0.455703
711.52	1.64233
714.413	0.615366
717.305	2.15625
720.198	1.69682
723.091	2.29589
725.984	1.83403
728.876	2.06075
731.769	1.554
734.662	2.73498
737.554	3.63672
740.447	2.70455
743.34	0.11889
746.232	0.787838
749.125	1.27673
752.018	3.38154
754.91	0.15388
757.803	1.27309
760.696	0.408257
763.589	1.96181
766.481	1.52504
769.374	1.81795
772.267	2.34472
775.159	2.10376
778.052	1.21369
780.945	1.21692
783.838	3.2542
786.73	2.03097
789.623	1.66267
792.516	2.1516
795.408	2.83283
798.301	1.42223
801.194	1.2283
804.087	0.636202
806.979	1.99591
809.872	2.02082
812.765	2.91929
815.657	2.49758
818.55	2.84257
821.443	1.09514
824.335	2.58129
827.228	3.40207
830.121	3.60118
833.014	0.929062
835.906	2.12725
838.799	0.444237
841.692	2.53301
844.584	1.38793
847.477	0.929935
850.37	2.20743
853.263	2.66015
856.155	2.40358
859.048	1.54762
861.941	2.15292
864.833	1.01019
867.726	2.33304
870.619	1.51413
873.511	2.88136
876.404	1.54473
879.297	2.34276
882.189	3.14127
885.082	3.68502
887.975	1.92965
890.868	3.45885
893.76	1.59246
896.653	0.487531
899.546	1.26105
902.438	2.88454
905.331	3.36309
908.224	1.75814
911.116	0.734521
914.009	0.795839
916.902	2.06262
919.795	2.43336
922.687	1.06716
925.58	1.12661
928.473	0.002671
931.365	0.174047
934.258	2.56384
937.151	1.01375
940.044	0.807778
942.936	3.57342
945.829	3.46597
948.722	1.84223
951.614	0.751322
954.507	1.19603
957.4	1.02996
960.293	2.8376
963.185	1.93434
966.078	2.58867
968.971	2.37862
971.863	2.32669
974.756	2.08379
977.649	2.48363
980.541	2.9288
983.434	1.67741
986.327	2.42401
989.22	1.86768
992.112	0.396204
995.005	2.43057
997.898	2.83393
1000.79	2.05189
1003.68	1.81877
1006.58	2.66894
1009.47	1.32003
1012.36	0.692273
1015.25	1.11569
1018.15	1.1817
1021.04	1.5668
1023.93	1.6996
1026.83	2.20592
1029.72	1.62499
1032.61	1.71695
1035.5	0.349569
1038.4	1.29964
1041.29	2.96643
1044.18	0.483251
1047.07	1.81202
1049.97	2.71373
1052.86	2.41417
1055.75	2.63289
1058.64	3.56649
1061.54	2.80984
1064.43	2.84825
1067.32	1.85597
1070.21	1.35672
1073.11	0.554879
1076	2.36614
1078.89	2.45214
1081.79	1.93226
1084.68	2.48336
1087.57	0.50999
1090.46	0.290831
1093.36	1.78812
1096.25	0.649273
1099.14	1.09347
1102.04	1.47945
1104.93	2.10881
1107.82	2.36524
1110.71	0.525406
1113.61	1.67811
1116.5	2.00728
1119.39	0.906856
1122.28	2.67943
1125.18	1.36131
1128.07	0.151803
1130.96	0.397478
1133.86	0.748542
1136.75	2.29278
1139.64	1.66752
1142.53	2.85721
1145.43	2.0087
1148.32	2.91202
1151.21	2.38875
1154.1	0.120146
1157	0.057807
1159.89	3.18872
1162.78	0.767417
1165.67	0.179755
1168.57	1.4869
1171.46	1.03568
1174.35	3.55318
1177.24	1.9289
1180.14	1.26094
1183.03	0.2212
1185.92	2.03514
1188.82	1.8193
1191.71	3.36421
1194.6	1.6002
1197.49	3.81164
1200.39	2.7402
1203.28	1.0271
1206.17	2.95831
1209.07	3.13298
1211.96	2.25867
1214.85	2.0485
1217.74	2.91429
1220.64	2.16465
1223.53	3.57691
1226.42	3.30853
1229.31	5.13255
1232.21	4.69016
1235.1	3.48947
1237.99	4.54251
1240.88	2.99267
1243.78	4.34846
1246.67	3.39107
1249.56	3.95612
1252.45	1.6011
1255.35	4.9358
1258.24	3.85337
1261.13	3.7695
1264.03	1.41936
1266.92	1.96537
1269.81	4.8756
1272.7	3.71005
1275.6	3.97124
1278.49	6.81401
1281.38	5.69495
1284.28	2.85686
1287.17	3.60188
1290.06	3.04071
1292.95	1.68542
1295.85	1.37647
1298.74	2.12648
1301.63	0.180634
