Measurement: Raman, 785 nm, unoriented, Raman Data Processed
Mineral: Paramontroseite
Rruff sample: R050391
Ideal chemistry: V^4+^O_2_
Locality: J.J. mine, Buell Canyon District, Montrose County, Colorado, USA
Source: University of Arizona Mineral Museum
Description: Black massive, radioactive
Measured chemistry: gray phase: (V^4+^_0.82_Fe^3+^_0.09_U^6+^_0.04_V^5+^_0.03_Al_0.02_)_Î£=1_O_2_; lightest phase is uranophane
Raman shift (cm-1)	intensity
128.733	0
131.626	189.564
134.519	396.606
137.411	372.481
140.304	438.425
143.197	772.847
146.089	1027.67
148.982	992.325
151.875	703.833
154.768	373.358
157.66	117.104
160.553	41.5336
163.446	20.0666
166.338	5.65442
169.231	3.35956
172.124	7.10144
175.017	0.41217
177.909	28.1027
180.802	28.5902
183.695	48.8688
186.587	68.8889
189.48	91.0195
192.373	123.243
195.265	159.383
198.158	99.4894
201.051	60.3492
203.944	27.7866
206.836	0.775635
209.729	17.7188
212.622	26.6852
215.514	13.2955
218.407	0.919189
221.3	0.792847
224.192	7.26001
227.085	23.0107
229.978	21.2988
232.87	28.6793
235.763	29.5146
238.656	22.2745
241.549	65.8132
244.441	54.4813
247.334	47.4441
250.227	81.1125
253.119	81.3037
256.012	103.55
258.905	153.505
261.798	182.743
264.69	235.226
267.583	303.427
270.476	354.566
273.368	450.346
276.261	596.855
279.154	673.883
282.046	767.587
284.939	752.825
287.832	627.853
290.724	490.257
293.617	373.182
296.51	306.202
299.403	290.32
302.295	249.12
305.188	232.287
308.081	165.819
310.973	164.816
313.866	118.149
316.759	90.393
319.651	70.7112
322.544	60.616
325.437	60.7792
328.33	50.3889
331.222	49.4648
334.115	28.0076
337.008	18.4443
339.9	10.4055
342.793	11.2026
345.686	21.1804
348.579	19.1425
351.471	3.73779
354.364	5.6557
357.257	5.93945
360.149	8.63873
363.042	10.699
365.935	6.30231
368.827	11.9057
371.72	10.01
374.613	8.3349
377.505	16.1284
380.398	17.3082
383.291	14.7981
386.184	40.4915
389.076	47.332
391.969	59.374
394.862	68.0033
397.754	132.97
400.647	127.428
403.54	174.339
406.433	158.114
409.325	124.618
412.218	75.7613
415.111	70.2634
418.003	24.1946
420.896	31.3611
423.789	21.572
426.681	2.75946
429.574	2.52386
432.467	23.3496
435.36	12.9504
438.252	7.95953
441.145	8.84589
444.038	1.56744
446.93	40.0076
449.823	37.4011
452.716	52.3707
455.608	49.795
458.501	50.1248
461.394	68.3888
464.286	64.7517
467.179	83.253
470.072	127.748
472.965	100.522
475.857	86.5107
478.75	111.502
481.643	83.5842
484.535	67.4546
487.428	67.5004
490.321	42.4789
493.214	55.9911
496.106	53.0943
498.999	23.4426
501.892	21.4676
504.784	29.9676
507.677	45.8191
510.57	49.1287
513.462	64.2152
516.355	68.778
519.248	62.9383
522.14	68.4523
525.033	53.0096
527.926	59.9481
530.819	54.735
533.711	48.3794
536.604	20.9231
539.497	39.2022
542.389	13.0521
545.282	36.5546
548.175	16.1984
551.067	23.1971
553.96	1.33356
556.853	3.03638
559.745	11.0388
562.638	18.3798
565.531	5.92828
568.424	2.12769
571.316	25.0649
574.209	6.47717
577.102	15.8761
579.994	13.0958
582.887	11.2292
585.78	16.655
588.673	26.876
591.565	25.1003
594.458	28.5496
597.351	11.4537
600.243	10.2225
603.136	11.4755
606.029	5.19763
608.921	13.762
611.814	2.71582
614.707	9.40033
617.6	11.1561
620.492	9.91034
623.385	4.16162
626.278	4.03992
629.17	13.0038
632.063	5.22729
634.956	15.3182
637.848	19.6221
640.741	22.1717
643.634	30.8094
646.527	17.4826
649.419	57.2856
652.312	34.2177
655.205	62.5382
658.097	51.2509
660.99	47.884
663.883	56.1338
666.775	81.8437
669.668	101.923
672.561	126.541
675.454	141.822
678.346	195.827
681.239	234.594
684.132	261.192
687.024	303.531
689.917	354.414
692.81	396.357
695.702	401.911
698.595	388.491
701.488	376.37
704.381	331.22
707.273	304.291
710.166	237.349
713.059	203.997
715.951	156.112
718.844	137.101
721.737	96.2859
724.63	95.3506
727.522	71.3309
730.415	55.3533
733.308	56.6798
736.2	43.7941
739.093	37.0082
741.986	39.7709
744.878	41.6285
747.771	34.5079
750.664	62.8497
753.557	63.1467
756.449	77.7259
759.342	87.0648
762.235	95.3
765.127	108.945
768.02	126.851
770.913	116.378
773.805	139.778
776.698	145.002
779.591	136.612
782.484	120.29
785.376	103.689
788.269	95.1992
791.162	69.9959
794.054	49.3998
796.947	34.7378
799.84	19.2578
802.732	13.3831
805.625	0.359253
808.518	3.65185
811.41	7.82935
814.303	26.3355
817.196	1.35248
820.089	5.74463
822.981	0.360535
825.874	9.99793
828.767	1.6908
831.659	29.4614
834.552	16.7388
837.445	37.7072
840.337	36.7669
843.23	61.7129
846.123	51.1432
849.016	64.4236
851.908	88.7642
854.801	81.1954
857.694	84.7838
860.586	74.0559
863.479	69.7097
866.372	79.4194
869.264	83.2788
872.157	69.5395
875.05	61.0835
877.943	33.1221
880.835	57.7603
883.728	37.6075
886.621	28.8264
889.513	26.615
892.406	10.3131
895.299	37.3041
898.192	17.1902
901.084	23.8919
903.977	41.9728
906.87	22.355
909.762	35.3341
912.655	47.0229
915.548	49.4941
918.44	53.6183
921.333	54.145
924.226	40.8436
927.119	63.7216
930.011	52.6101
932.904	38.9003
935.797	34.343
938.689	40.1824
941.582	28.1226
944.475	43.9495
947.367	19.3038
950.26	5.4165
953.153	14.963
956.045	25.0673
958.938	5.70258
961.831	2.43463
964.724	9.85681
967.616	22.2593
970.509	10.3049
973.402	10.39
976.294	44.6773
979.187	64.7075
982.08	96.8161
984.972	214.225
987.865	293.533
990.758	407.858
993.651	431.303
996.543	289.645
999.436	137.558
1002.33	80.1918
1005.22	49.306
1008.11	39.32
1011.01	37.8886
1013.9	1.66956
1016.79	14.6595
1019.68	15.1776
1022.58	1.31039
1025.47	25.909
1028.36	6.93292
1031.26	10.7909
1034.15	16.5539
1037.04	21.1593
1039.93	0.532318
1042.83	11.3334
1045.72	5.60394
1048.61	4.36307
1051.51	14.8587
1054.4	8.53302
1057.29	2.05008
1060.18	26.1824
1063.08	12.5846
1065.97	22.5844
1068.86	12.6013
1071.75	6.78619
1074.65	15.823
1077.54	14.1913
1080.43	21.9539
1083.32	3.5462
1086.22	45.5867
1089.11	8.54855
1092	13.309
1094.89	4.80423
1097.79	20.8706
1100.68	23.5003
1103.57	19.5923
1106.47	21.2363
1109.36	18.577
1112.25	0.122406
1115.14	20.8602
1118.04	41.7121
1120.93	15.4386
1123.82	27.0812
1126.71	14.6212
1129.61	20.0727
1132.5	23.6845
1135.39	8.39197
1138.29	20.9746
1141.18	11.2067
1144.07	13.3336
1146.96	5.65848
1149.86	8.67273
1152.75	25.9875
1155.64	24.0148
1158.53	8.32465
1161.43	19.3602
1164.32	7.97409
1167.21	23.7789
1170.11	7.84424
1173	35.9247
1175.89	9.14227
1178.78	12.9371
1181.68	3.47186
1184.57	0.25647
1187.46	30.5497
1190.35	4.63818
1193.25	19.2498
1196.14	4.10956
1199.03	21.976
1201.92	22.6687
1204.82	3.07294
1207.71	3.16727
1210.6	24.8721
1213.5	8.20819
1216.39	1.48453
1219.28	6.31378
1222.17	30.4635
1225.07	5.45703
1227.96	4.59778
1230.85	8.44528
1233.74	17.6164
1236.64	14.4462
1239.53	22.0424
1242.42	4.35904
