Measurement: Raman, 532 nm, unoriented, Raman Data Processed
Mineral: Parafransoletite
Rruff sample: R130056
Ideal chemistry: Ca_3_Be_2_(PO_4_)_2_(PO_3_OH)_2_4H_2_O
Locality: Tip Top mine, Custer, South Dakota, USA
Source: Thomas A. Loomis
Description: White bladed crystals
Raman shift (cm-1)	intensity
194.945	0
197.838	16.8328
200.731	24.2581
203.623	9.88965
206.516	0.811707
209.409	2.57141
212.301	8.45355
215.194	12.9748
218.087	27.7159
220.98	30.0146
223.872	32.4075
226.765	27.978
229.658	38.6486
232.55	21.9612
235.443	33.9603
238.336	38.0707
241.228	30.8096
244.121	40.4382
247.014	32.5712
249.906	34.3212
252.799	48.3363
255.692	37.8853
258.585	36.2111
261.477	30.9235
264.37	30.8875
267.263	24.6238
270.155	9.99915
273.048	11.9628
275.941	9.56451
278.834	6.62604
281.726	1.74628
284.619	1.37732
287.512	4.25098
290.404	0.794678
293.297	3.15424
296.19	2.24377
299.082	5.51971
301.975	7.51733
304.868	1.88025
307.76	9.87341
310.653	6.98865
313.546	5.55176
316.439	7.41321
319.331	6.02905
322.224	5.03168
325.117	10.8225
328.009	14.0381
330.902	12.404
333.795	14.0759
336.688	9.16498
339.58	10.2741
342.473	6.94592
345.366	9.2735
348.258	11.2508
351.151	13.4155
354.044	3.79413
356.936	10.6909
359.829	2.39612
362.722	3.51019
365.615	6.9184
368.507	4.30316
371.4	3.13592
374.293	3.5506
377.185	7.6134
380.078	2.31635
382.971	9.17273
385.863	0.468079
388.756	8.18176
391.649	15.5329
394.541	16.1905
397.434	27.6419
400.327	32.4342
403.22	37.1613
406.112	48.7719
409.005	48.9829
411.898	41.9904
414.79	29.8732
417.683	17.936
420.576	15.2808
423.469	18.3823
426.361	16.0558
429.254	23.3283
432.147	13.636
435.039	18.9003
437.932	23.2871
440.825	28.3636
443.717	39.1542
446.61	50.479
449.503	53.0216
452.396	46.9701
455.288	35.1352
458.181	13.0347
461.074	4.40533
463.966	4.48566
466.859	9.57178
469.752	9.82007
472.644	8.00616
475.537	0.166992
478.43	3.34699
481.322	0.009827
484.215	6.672
487.108	5.1029
490.001	0.267334
492.893	11.0503
495.786	8.97943
498.679	23.1321
501.571	23.3843
504.464	33.4266
507.357	43.5751
510.25	37.3206
513.142	50.4566
516.035	57.2306
518.928	51.4896
521.82	36.0649
524.713	39.1487
527.606	36.9891
530.498	47.5602
533.391	32.3829
536.284	35.8373
539.177	37.2205
542.069	50.7847
544.962	35.269
547.855	45.7661
550.747	52.4383
553.64	63.2009
556.533	79.9287
559.425	111.074
562.318	101.782
565.211	83.1458
568.104	64.6519
570.996	61.3347
573.889	49.4886
576.782	32.7451
579.674	23.857
582.567	11.5815
585.46	16.6536
588.352	12.0319
591.245	10.093
594.138	12.3156
597.03	17.6658
599.923	21.7852
602.816	27.8491
605.709	21.0378
608.601	31.3028
611.494	27.7716
614.387	18.0167
617.279	17.4462
620.172	4.953
623.065	3.68616
625.957	12.0758
628.85	1.03046
631.743	5.99719
634.636	2.38782
637.528	1.27734
640.421	4.84283
643.314	1.73871
646.206	5.45441
649.099	9.15613
651.992	0.1026
654.885	6.16357
657.777	16.2245
660.67	8.20038
663.563	7.16455
666.455	11.7936
669.348	8.49432
672.241	4.11316
675.133	10.8128
678.026	8.8631
680.919	16.1762
683.812	9.50311
686.704	15.8336
689.597	14.5386
692.49	13.7162
695.382	5.54279
698.275	7.70569
701.168	4.83331
704.06	10.5555
706.953	17.795
709.846	8.41382
712.739	12.265
715.631	10.7552
718.524	12.4685
721.417	8.77869
724.309	3.34906
727.202	18.5487
730.095	7.72076
732.987	13.5412
735.88	15.6876
738.773	7.56494
741.665	12.8096
744.558	11.0521
747.451	13.1664
750.344	10.2494
753.236	4.69458
756.129	6.89258
759.022	1.33936
761.914	6.76623
764.807	1.65991
767.7	8.7948
770.592	7.95325
773.485	1.99707
776.378	9.27588
779.271	9.34924
782.163	8.93811
785.056	6.4928
787.949	4.10205
790.841	2.61121
793.734	11.9381
796.627	1.01917
799.519	1.90295
802.412	11.1665
805.305	2.67017
808.198	18.3523
811.09	6.57361
813.983	11.1561
816.876	9.6615
819.768	14.6859
822.661	15.3903
825.554	11.4797
828.447	5.71057
831.339	16.9842
834.232	0.083496
837.125	12.959
840.017	13.4913
842.91	12.2906
845.803	7.45398
848.695	9.41089
851.588	5.73706
854.481	20.196
857.374	16.1539
860.266	13.4345
863.159	6.67468
866.052	13.6528
868.944	7.57227
871.837	8.49109
874.73	2.02136
877.622	8.85339
880.515	6.80188
883.408	5.02649
886.301	2.77527
889.193	5.46716
892.086	0.685913
894.979	5.2096
897.871	1.87158
900.764	0.030151
903.657	0.020996
906.549	3.64954
909.442	7.10388
912.335	5.04968
915.227	7.146
918.12	2.01257
921.013	12.0907
923.906	17.7482
926.798	10.0918
929.691	21.9078
932.584	44.8038
935.476	59.8368
938.369	85.0179
941.262	136.409
944.154	171.814
947.047	208.262
949.94	204.52
952.833	141.183
955.725	75.8424
958.618	45.5255
961.511	30.9258
964.403	10.734
967.296	2.84436
970.189	8.85339
973.082	4.48901
975.974	3.27734
978.867	5.64893
981.76	10.228
984.652	20.4929
987.545	30.7902
990.438	40.7926
993.33	86.2028
996.223	121.988
999.116	184.391
1002.01	247.766
1004.9	243.96
1007.79	194.181
1010.69	141.168
1013.58	105.218
1016.47	71.7202
1019.37	55.4329
1022.26	47.2163
1025.15	34.1397
1028.04	34.2256
1030.94	30.7616
1033.83	22.2488
1036.72	0.557617
1039.61	7.37439
1042.51	1.53247
1045.4	3.3396
1048.29	2.73975
1051.18	5.19775
1054.08	14.7656
1056.97	33.5447
1059.86	48.1986
1062.76	82.5813
1065.65	78.8799
1068.54	63.1711
1071.43	40.9563
1074.33	25.4436
1077.22	11.3547
1080.11	0.6875
1083	16.5783
1085.9	6.64819
1088.79	14.5709
1091.68	12.1766
1094.58	11.2739
1097.47	22.6876
1100.36	25.2568
1103.25	15.9764
1106.15	28.5533
1109.04	14.0558
1111.93	28.6773
1114.82	24.2191
1117.72	11.3221
1120.61	4.77966
1123.5	1.22852
1126.39	5.33557
1129.29	8.38928
1132.18	13.0028
1135.07	14.403
1137.96	25.8768
1140.86	19.3066
1143.75	13.09
1146.64	9.20459
1149.54	10.8439
1152.43	5.72314
1155.32	2.9552
1158.21	2.84729
1161.11	2.71021
1164	4.18994
1166.89	11.092
1169.79	15.8409
1172.68	12.0192
1175.57	9.26392
1178.46	14.7148
1181.36	4.14258
1184.25	15.9265
1187.14	18.467
1190.03	8.02881
1192.93	20.2734
1195.82	13.1066
1198.71	14.8445
1201.61	15.2955
1204.5	6.64319
1207.39	13.0905
1210.28	8.06335
1213.18	16.7275
1216.07	13.8518
1218.96	4.53735
1221.85	5.06213
1224.75	9.94263
1227.64	14.1729
1230.53	9.1582
1233.42	9.12707
1236.32	11.8957
1239.21	14.7543
1242.1	3.11719
1244.99	8.55005
1247.89	11.115
1250.78	10.0875
1253.67	8.77405
1256.57	11.119
1259.46	4.86682
1262.35	16.551
1265.24	6.48218
1268.14	11.1237
1271.03	16.8372
1273.92	13.3826
1276.82	8.26392
1279.71	11.5681
1282.6	13.2361
1285.49	18.7646
1288.39	10.4165
1291.28	0.897583
1294.17	5.15784
1297.06	2.92481
1299.96	0.988403
