Measurement: Raman, 514 nm, unoriented, Raman Data Processed
Mineral: Paramontroseite
Rruff sample: R050391
Ideal chemistry: V^4+^O_2_
Locality: J.J. mine, Buell Canyon District, Montrose County, Colorado, USA
Source: University of Arizona Mineral Museum
Description: Black massive, radioactive
Measured chemistry: gray phase: (V^4+^_0.82_Fe^3+^_0.09_U^6+^_0.04_V^5+^_0.03_Al_0.02_)_Î£=1_O_2_; lightest phase is uranophane
Raman shift (cm-1)	intensity
103.124	0
107.3	455.287
111.473	66.746
115.644	1686.28
119.813	4548.66
123.981	8207.07
128.146	14592.7
132.309	26123.8
136.47	36671.3
140.63	38840.1
144.787	27138.5
148.942	15556.7
153.096	8539.72
157.247	5126.43
161.396	3757.76
165.544	2940.2
169.689	2325.25
173.833	1953.48
177.974	1799.09
182.114	1742.7
186.251	2012.31
190.387	1841.4
194.52	1634.14
198.652	1101.29
202.782	635.5
206.909	645.471
211.035	313.088
215.159	41.488
219.281	76.404
223.4	276.715
227.518	255.941
231.634	182.746
235.748	246.381
239.86	138.596
243.97	189.879
248.079	454.055
252.185	636.992
256.289	962.787
260.391	1626.96
264.492	2258.2
268.59	3619.75
272.687	6229.36
276.781	9018.4
280.874	10627.9
284.964	10455.5
289.053	8943.36
293.14	8093.05
297.225	7418.41
301.308	6649.57
305.389	5740.77
309.468	4808.4
313.545	4203.69
317.62	3762.69
321.693	3273.94
325.765	2896.39
329.834	2329.36
333.902	2164.47
337.967	1883.42
342.031	1621.07
346.093	1731.94
350.153	1564.7
354.21	1686
358.267	1532.79
362.321	1633.3
366.373	1877.71
370.423	1997.86
374.471	1692.79
378.518	1807.74
382.563	2086.91
386.605	2488.29
390.646	3174.65
394.685	4398.02
398.722	5955.17
402.757	6795.63
406.79	6903.15
410.821	5638.25
414.851	4355.47
418.878	2934.44
422.904	2308.47
426.927	2033.23
430.949	1796.01
434.969	1763.22
438.987	1784.46
443.003	1738.91
447.018	2008.81
451.03	2052.96
455.041	2819.7
459.049	2607.13
463.056	2962.03
467.061	3012.82
471.064	3163.73
475.065	3749.25
479.064	3269.44
483.062	3253.38
487.057	3323.11
491.051	3005.75
495.043	2930.41
499.032	2755.22
503.02	2958.27
507.007	2994.54
510.991	3215.25
514.973	3369.13
518.954	3517.3
522.933	3386.82
526.91	3448.83
530.885	3167.45
534.858	2803.68
538.829	2274.9
542.799	1902.61
546.766	1736.81
550.732	1335.78
554.696	1086.96
558.658	906.695
562.618	457.283
566.576	379.965
570.533	151.443
574.488	19.553
578.44	18.848
582.391	128.713
586.341	371.998
590.288	178.359
594.233	34.43
598.177	322.1
602.119	197.836
606.059	267.086
609.997	231.85
613.933	175.75
617.868	371.461
621.801	378.957
625.731	211.176
629.66	541.873
633.588	874.439
637.513	723.279
641.437	790.971
645.358	782.322
649.278	1234.35
653.196	1147.07
657.113	1310.51
661.027	1497.66
664.94	1581.56
668.851	2023.19
672.76	2093.59
676.667	2511.75
680.572	3066.7
684.476	3700.44
688.378	3966.97
692.278	4544.31
696.176	4208.47
700.072	3736.45
703.967	3499.23
707.86	3349.82
711.751	2796.21
715.64	2569.39
719.527	3958.35
723.413	2874.1
727.297	2412.64
731.179	2240.79
735.059	2323.96
738.937	1892.59
742.814	1498.97
746.689	1475.02
750.562	1601.67
754.433	592.84
758.303	498.809
762.17	405.576
766.036	204.545
769.901	58.232
773.763	318.506
777.624	33.586
781.482	181.271
785.339	15.654
789.195	169.557
793.048	431.496
796.9	637.746
800.75	566.215
804.598	717.863
808.445	1449.91
812.289	1622.19
816.132	2054.65
819.973	2310.65
823.813	2222.01
827.65	2531.83
831.486	2432.84
835.32	1767.05
839.152	1914.43
842.983	1709.22
846.812	1293.35
850.639	1059.7
854.464	319.275
858.288	504.146
862.11	510.184
865.93	586.307
869.748	872.508
873.564	948.656
877.379	1282.83
881.192	2136.04
885.004	2598.37
888.813	2754.75
892.621	2805.35
896.427	3154.14
900.232	2966.26
904.034	2629.51
907.835	3093.89
911.634	3523.72
915.432	4231.75
919.227	4593.94
923.021	4915.11
926.813	4625.35
930.604	4325.98
934.393	3735.34
938.18	3490.26
941.965	3678.48
945.749	3768.48
949.53	4485.33
953.311	5245.85
957.089	5450.49
960.866	4886.35
964.641	4529.64
968.414	4369.33
972.185	4498
975.955	5344.28
979.723	7161.92
983.49	11218.3
987.254	18115.8
991.017	22689.9
994.779	16057.4
998.538	8368.6
1002.3	5042.81
1006.05	3423.7
1009.81	2172.59
1013.56	1916.49
1017.31	1591.06
1021.06	1036.94
1024.81	878.049
1028.55	821.41
1032.3	694.777
1036.04	397.461
1039.78	504.648
1043.52	433.146
1047.26	370.15
1050.99	1310.51
1054.73	992.525
1058.46	487.32
1062.19	110.682
1065.92	296.986
1069.65	286.439
1073.37	321.014
1077.1	200.688
1080.82	155.469
1084.54	2.729
1088.26	142.668
1091.97	52.502
1095.69	279.625
1099.4	48.732
1103.12	4.576
1106.83	100.18
1110.54	39.049
1114.24	179.416
1117.95	11.365
1121.65	102.668
1125.35	180.354
1129.06	84.459
1132.75	16.666
1136.45	12.518
1140.15	169.047
1143.84	225.24
1147.53	138.689
1151.22	46.574
1154.91	103.367
1158.6	40.607
1162.28	115.742
1165.97	76.004
1169.65	308.793
1173.33	5.248
1177.01	107.732
1180.69	275.795
1184.36	316.219
1188.04	353.756
1191.71	506.861
1195.38	415.619
1199.05	560.121
1202.71	408.807
1206.38	595.891
1210.04	366.531
1213.71	534.283
1217.37	505.629
1221.03	624.082
1224.68	539.885
1228.34	594.477
1231.99	551.953
1235.65	788.498
1239.3	773.846
1242.95	669.418
1246.59	547.24
1250.24	552.871
1253.88	637.99
1257.53	586.453
1261.17	649.801
1264.81	741.748
1268.45	612.449
1272.08	449.211
1275.72	500.623
1279.35	390.246
1282.98	381.381
1286.61	612.836
1290.24	552.664
1293.87	314.375
1297.49	387.182
1301.11	335.615
1304.73	267.705
1308.36	258.621
1311.97	469.143
1315.59	48.76
1319.2	280.674
1322.82	211.523
1326.43	197.523
1330.04	186.82
1333.65	223.984
1337.26	312.609
1340.86	268.492
1344.47	198.959
1348.07	134.52
1351.67	379.715
1355.27	296.172
1358.87	320.932
1362.46	366.066
1366.06	371.004
1369.65	359.092
1373.24	284.463
1376.83	262.945
1380.42	25.717
1384	177.545
1387.59	176.389
1391.17	109.02
1394.75	144.316
1398.33	300.43
1401.91	146.119
1405.49	141.178
1409.06	13.346
1412.64	103.416
1416.21	257.557
1419.78	118.824
1423.35	366.873
1426.91	194.609
1430.48	270.496
1434.05	402.004
1437.61	520.256
1441.17	168.02
1444.73	345.018
1448.29	301.619
1451.84	280.654
1455.4	333.598
1458.95	378.02
1462.5	453.322
1466.05	344.916
1469.6	212.438
1473.15	385.766
1476.69	582.172
1480.24	391.934
1483.78	180.014
1487.32	41.508
1490.86	303.328
1494.39	297.885
1497.93	287.09
1501.46	12.904
1505	138.551
1508.53	129.186
1512.06	266.297
1515.59	278.328
1519.11	0.148
