Measurement: Raman, 532 nm, unoriented, Raman Data Processed
Mineral: Parkerite
Rruff sample: R070056
Ideal chemistry: Ni_3_(Bi,Pb)_2_S_2_
Locality: Otjabrsky deposit, Norilsk ore district, Russia
Source: Michael Scott
Description: Bronze metallic polished fragment
Raman shift (cm-1)	intensity
128.969	0
132.344	23.9546
135.719	5.04184
139.094	21.6741
142.468	5.2821
145.843	30.2529
149.218	28.0341
152.593	33.6128
155.968	22.4504
159.342	15.8911
162.717	40.2062
166.092	34.7071
169.467	41.4282
172.842	30.6338
176.216	24.474
179.591	26.0075
182.966	23.0851
186.341	19.1561
189.716	19.4926
193.091	0.177078
196.465	15.658
199.84	9.36571
203.215	16.573
206.59	10.69
209.965	11.9039
213.339	14.36
216.714	8.31212
220.089	0.124191
223.464	3.52628
226.839	0.311768
230.214	21.234
233.588	7.86726
236.963	18.3641
240.338	33.0843
243.713	39.3214
247.088	37.063
250.462	53.3211
253.837	68.9398
257.212	78.4839
260.587	99.3859
263.962	103.781
267.337	122.914
270.711	114.771
274.086	134.497
277.461	160.568
280.836	224.984
284.211	306.577
287.585	429.968
290.96	546.328
294.335	515.254
297.71	269.971
301.085	111.697
304.459	64.6279
307.834	52.4479
311.209	73.7099
314.584	94.9779
317.959	95.6193
321.334	108.173
324.708	92.6992
328.083	61.7913
331.458	33.7662
334.833	39.8393
338.208	33.6376
341.582	44.9498
344.957	67.9109
348.332	71.2667
351.707	102.295
355.082	90.6761
358.456	92.294
361.831	65.2977
365.206	55.4265
368.581	36.8157
371.956	40.4715
375.33	10.8603
378.705	1.87331
382.08	11.5849
385.455	9.14039
388.83	10.6564
392.205	8.52715
395.579	4.17578
398.954	2.24745
402.329	9.62439
405.704	9.46695
409.079	10.4568
412.454	24.1307
415.828	12.6929
419.203	25.747
422.578	29.7522
425.953	26.1845
429.327	31.9218
432.702	28.5562
436.077	34.7796
439.452	50.3813
442.827	55.8927
446.202	70.4831
449.576	77.0911
452.951	120.799
456.326	147.591
459.701	178.125
463.076	218.791
466.45	268.368
469.825	295.096
473.2	272.131
476.575	232.663
479.95	150.537
483.325	77.6375
486.699	57.2523
490.074	34.3543
493.449	15.0029
496.824	19.7715
500.199	0.221878
503.573	11.7598
506.948	20.5455
510.323	3.26125
513.698	2.7784
517.073	8.30865
520.447	0.943321
523.822	0.797142
527.197	7.00005
530.572	17.3851
533.947	4.77296
537.322	0.317894
540.696	12.942
544.071	7.51678
547.446	16.0051
550.821	11.8945
554.196	10.1079
557.57	10.1971
560.945	10.0308
564.32	13.2114
567.695	7.56793
571.07	23.1582
574.444	12.6943
577.819	13.7021
581.194	10.5961
584.569	6.74065
587.944	7.04823
591.319	0.296524
594.693	1.40114
598.068	6.61526
601.443	4.88041
604.818	14.8209
608.193	5.75619
611.567	4.4631
614.942	6.92751
618.317	7.95037
621.692	16.5985
625.067	2.63443
628.442	7.93214
631.816	1.15386
635.191	1.06529
638.566	13.4947
641.941	1.04073
645.316	2.91903
648.69	20.7721
652.065	2.07468
655.44	4.52173
658.815	12.4254
662.19	14.8311
665.564	11.598
668.939	1.00043
672.314	16.445
675.689	11.172
679.064	11.0515
682.438	24.0018
685.813	2.42308
689.188	10.4342
692.563	9.27916
695.938	8.7999
699.313	13.1795
702.687	22.8777
706.062	28.3442
709.437	1.32608
712.812	12.1357
716.187	19.3435
719.562	13.533
722.936	17.3248
726.311	7.07559
729.686	27.7203
733.061	24.9558
736.436	13.783
739.81	21.8913
743.185	19.7475
746.56	15.2518
749.935	2.79869
753.31	18.834
756.684	0.517731
760.059	12.765
763.434	2.05157
766.809	16.7318
770.184	12.1939
773.558	11.791
776.933	9.2849
780.308	8.23305
783.683	0.654823
787.058	3.72977
790.433	17.96
793.807	21.0038
797.182	3.65406
800.557	18.6955
803.932	1.46585
807.307	3.90154
810.682	11.6507
814.056	14.4694
817.431	12.2777
820.806	2.47822
824.181	9.24662
827.556	11.185
830.93	0.693184
834.305	6.2077
837.68	17.588
841.055	11.6033
844.43	14.443
847.804	3.92069
851.179	8.67601
854.554	4.2118
857.929	8.18334
861.304	7.7062
864.678	8.19816
868.053	6.78256
871.428	3.66367
874.803	11.6224
878.178	0.803024
881.553	12.3525
884.927	2.49698
888.302	15.9992
891.677	8.91686
895.052	13.2611
898.427	10.5773
901.802	13.8806
905.176	19.9773
908.551	19.4998
911.926	30.8343
915.301	1.49217
918.676	25.7556
922.05	26.5891
925.425	20.5374
928.8	4.40048
932.175	25.9586
935.55	22.0381
938.924	8.35037
942.299	19.5826
945.674	16.7808
949.049	13.474
952.424	10.772
955.798	12.2326
959.173	18.8387
962.548	15.7325
965.923	4.08719
969.298	10.8101
972.673	2.0244
976.047	17.5212
979.422	14.8999
982.797	9.19521
986.172	9.59091
989.547	7.67973
992.921	13.1633
996.296	5.48983
999.671	13.2966
1003.05	9.75514
1006.42	9.7426
1009.79	10.8633
1013.17	6.64833
1016.54	11.3056
1019.92	10.2083
1023.29	18.0223
1026.67	17.141
1030.04	16.4893
1033.42	12.1279
1036.79	26.0964
1040.17	16.3353
1043.54	13.152
1046.92	21.5847
1050.29	15.0475
1053.67	18.9146
1057.04	13.5922
1060.42	5.9946
1063.79	21.295
1067.17	16.5926
1070.54	6.74461
1073.92	7.90645
1077.29	15.9258
1080.67	8.66376
1084.04	15.082
1087.42	6.70019
1090.79	11.0278
1094.17	3.598
1097.54	6.34991
1100.91	0.545395
1104.29	3.92466
1107.66	10.2458
1111.04	4.32003
1114.41	10.8424
1117.79	0.854988
1121.16	6.05805
1124.54	14.6734
1127.91	10.3788
1131.29	2.58112
1134.66	10.9353
1138.04	16.5316
1141.41	0.420204
1144.79	4.52399
1148.16	10.5545
1151.54	20.3684
1154.91	0.527046
1158.29	14.4548
1161.66	3.10693
1165.04	12.0853
1168.41	14.6943
1171.79	2.50434
1175.16	4.50135
1178.54	5.76642
1181.91	8.80403
1185.29	1.26691
1188.66	1.17267
1192.04	18.2504
1195.41	10.6672
1198.79	16.6107
1202.16	13.9787
1205.54	26.9925
1208.91	4.87399
1212.28	19.5911
1215.66	7.0304
1219.03	0.227356
1222.41	17.671
1225.78	15.2528
1229.16	16.8547
1232.53	17.5159
1235.91	18.1379
1239.28	23.8717
1242.66	12.279
1246.03	8.89851
1249.41	14.3032
1252.78	2.71758
1256.16	8.57507
1259.53	16.9595
1262.91	4.5542
1266.28	5.90543
1269.66	28.7547
1273.03	6.67941
1276.41	0.772911
1279.78	12.0761
1283.15	9.94982
1286.53	17.8492
1289.9	11.6317
1293.28	7.70805
1296.65	11.0661
1300.03	13.1176
1303.4	5.30286
1306.78	13.3524
1310.15	7.51553
1313.53	8.94923
1316.9	0
