Measurement: Raman, 780 nm, unoriented, Raman Data Processed
Mineral: Patronite
Rruff sample: R070737
Ideal chemistry: VS_4_
Locality: Ragra Mine (Minasragra), Junín, Cerro de Pasco, Alcides Carrión Province, Pasco Department, Peru
Source: Michael Scott
Description: Lead-gray to gray-black metallic massive
Raman shift (cm-1)	intensity
169.181	0
172.074	8.10693
174.967	768.695
177.859	2212.43
180.752	4015.54
183.645	6707.4
186.538	9393.68
189.43	12327.5
192.323	12875.1
195.216	9719.19
198.108	6019.92
201.001	3863.55
203.894	3167.09
206.786	2629.43
209.679	2222.06
212.572	2317.57
215.465	2754.16
218.357	2944.09
221.25	2289.41
224.143	1059.02
227.035	352.912
229.928	20.4653
232.821	59.3804
235.714	65.9097
238.606	128.517
241.499	100.24
244.392	59.2544
247.284	38.4526
250.177	95.8413
253.07	243.297
255.962	423.74
258.855	717.929
261.748	1026.98
264.64	1434.64
267.533	2001.58
270.426	2315.94
273.319	2003.04
276.211	1722.78
279.104	1658.32
281.997	1953.4
284.889	2136.79
287.782	1987.88
290.675	1339.95
293.567	765.781
296.46	530.117
299.353	271.711
302.246	193.097
305.138	89.7573
308.031	2.09668
310.924	45.8403
313.816	12.6665
316.709	151.198
319.602	382.685
322.495	768.005
325.387	1349.11
328.28	2218.77
331.173	3387.73
334.065	4890.39
336.958	6480.69
339.851	8066.7
342.743	8897.35
345.636	8538.96
348.529	6947.03
351.421	4905.51
354.314	3150.84
357.207	2120.66
360.1	1531.31
362.992	1134.76
365.885	938.856
368.778	805.753
371.67	724.061
374.563	682.971
377.456	650.888
380.349	615.154
383.241	482.217
386.134	477.087
389.027	371.959
391.919	263.122
394.812	260.516
397.705	315.481
400.597	332.375
403.49	322.045
406.383	307.257
409.276	283.944
412.168	207.86
415.061	163.877
417.954	166.644
420.846	69.4544
423.739	54.1782
426.632	4.48828
429.524	8.04761
432.417	6.39185
435.31	55.8669
438.202	60.3743
441.095	97.6846
443.988	11.0708
446.881	26.0642
449.773	51.2654
452.666	41.9067
455.559	183.724
458.451	137.172
461.344	114.171
464.237	174.118
467.13	173.019
470.022	221.93
472.915	145.936
475.808	232.244
478.7	279.304
481.593	269.434
484.486	231.132
487.378	306.827
490.271	261.014
493.164	258.908
496.057	301.162
498.949	246.25
501.842	224.655
504.735	220.424
507.627	270.885
510.52	305.445
513.413	414.893
516.305	533.688
519.198	691.733
522.091	839.162
524.984	1019.4
527.876	1178.08
530.769	1337.36
533.662	1440.96
536.554	1805.44
539.447	1560.36
542.34	1585.48
545.232	1516.26
548.125	1383.58
551.018	1444.74
553.91	1542.89
556.803	1133.82
559.696	687.045
562.589	381.571
565.481	312.926
568.374	229.652
571.267	198.784
574.159	166.046
577.052	230.766
579.945	44.7412
582.837	78.7678
585.73	9.94238
588.623	2.62427
591.516	8.229
594.408	10.2017
597.301	9.69067
600.194	17.8186
603.086	15.4358
605.979	1.87891
608.872	48.5764
611.764	51.6135
614.657	86.9273
617.55	58.8543
620.443	63.8848
623.335	64.3318
626.228	63.5315
629.121	24.1895
632.013	17.3696
634.906	15.8552
637.799	23.571
640.692	12.1409
643.584	11.7129
646.477	1.78345
649.37	7.25366
652.262	5.8667
655.155	38.1414
658.048	26.3164
660.94	35.5159
663.833	104.731
666.726	113.624
669.619	223.962
672.511	270.205
675.404	456.501
678.297	380.057
681.189	459.938
684.082	541.537
686.975	543.98
689.867	608.471
692.76	604.917
695.653	534.951
698.545	503.885
701.438	488.205
704.331	420.265
707.224	420.166
710.116	411.547
713.009	351.512
715.902	310.912
718.794	319.329
721.687	290.044
724.58	277.887
727.472	253.121
730.365	280.257
733.258	237.86
736.151	254.317
739.043	223.92
741.936	253.613
744.829	256.119
747.721	208.058
750.614	223.04
753.507	184.676
756.399	170.608
759.292	185.226
762.185	234.829
765.078	102.905
767.97	94.2935
770.863	59.8516
773.756	40.0547
776.648	32.7742
779.541	80.3203
782.434	15.7029
785.327	64.0469
788.219	58.9197
791.112	4.18579
794.005	10.813
796.897	30.1125
799.79	23.3828
802.683	38.447
805.575	395.068
808.468	11.6213
811.361	281.41
814.254	19.1763
817.146	13.8521
820.039	13.7412
822.932	7.27344
825.824	4.448
828.717	6.98022
831.61	33.2771
834.502	64.5791
837.395	66.188
840.288	83.0981
843.181	89.979
846.073	52.2769
848.966	61.5894
851.859	43.5806
854.751	61.3303
857.644	72.3882
860.537	73.4971
863.429	154.139
866.322	225.67
869.215	318.591
872.107	434.402
875	574.121
877.893	568.96
880.786	556.167
883.678	513.429
886.571	496.982
889.464	521.598
892.356	610.38
895.249	707.842
898.142	824.24
901.034	793.228
903.927	706.093
906.82	575.34
909.713	532.959
912.605	397.431
915.498	443.141
918.391	326.803
921.283	357.075
924.176	371.174
927.069	362.297
929.962	380.75
932.854	311.435
935.747	241.484
938.64	196.78
941.532	190.444
944.425	174.293
947.318	95.356
950.21	36.4011
953.103	47.502
955.996	27.7588
958.889	4.19751
961.781	30.7446
964.674	17.6702
967.567	20.8613
970.459	3.84888
973.352	64.2639
976.245	63.5051
979.137	121.756
982.03	164.631
984.923	233.524
987.816	299.389
990.708	421.349
993.601	386.422
996.494	231.276
999.386	150.129
1002.28	61.1602
1005.17	21.6497
1008.06	22.7981
1010.96	35.9898
1013.85	11.9912
1016.74	3.95703
1019.63	18.0701
1022.53	9.27954
1025.42	32.8643
1028.31	16.4343
1031.21	22.1873
1034.1	17.1711
1036.99	3.50269
1039.88	17.5071
1042.78	5.92896
1045.67	21.5405
1048.56	38.8552
1051.45	29.2239
1054.35	24.9458
1057.24	31.2012
1060.13	48.9187
1063.03	53.71
1065.92	26.9497
1068.81	79.4146
1071.7	98.7642
1074.6	62.075
1077.49	56.8313
1080.38	60.6348
1083.28	45.5066
1086.17	58.1243
1089.06	22.0623
1091.95	54.4148
1094.85	82.1807
1097.74	62.3386
1100.63	51.3074
1103.52	44.7647
1106.42	47.8606
1109.31	20.9761
1112.2	70.5159
1115.09	12.4002
1117.99	13.9702
1120.88	30.1982
1123.77	38.9871
1126.66	15.9939
1129.56	10.021
1132.45	20.9014
1135.34	8.35144
1138.24	30.4059
1141.13	35.0533
1144.02	29.3458
1146.91	32.8826
1149.81	13.6586
1152.7	46.1312
1155.59	18.578
1158.48	12.1306
1161.38	55.7654
1164.27	32.5463
1167.16	16.5219
1170.06	45.6881
1172.95	64.5769
1175.84	67.0856
1178.73	56.4517
1181.63	39.835
1184.52	33.664
1187.41	64.4902
1190.3	39.9183
1193.2	9.75896
1196.09	58.2604
1198.98	15.9326
1201.88	32.3705
1204.77	26.8088
1207.66	5.49249
1210.55	7.5462
1213.45	73.5516
1216.34	44.6907
1219.23	22.0565
1222.12	47.8005
1225.02	5.58355
1227.91	18.3971
1230.8	35.4571
1233.69	75.9978
1236.59	23.4746
1239.48	27.056
1242.37	49.3848
1245.27	6.39038
