Measurement: Raman, 785 nm, unoriented, Raman Data Processed
Mineral: Pavonite
Rruff sample: R070566
Ideal chemistry: AgBi_3_S_5_
Locality: near Charcas, San Luis Potosi, Mexico
Source: James Shigley
Description: Steel-gray metallic massive
Raman shift (cm-1)	intensity
157.248	0
160.141	33.8565
163.034	4.85437
165.926	19.5532
168.819	20.9268
171.712	12.4502
174.604	36.3041
177.497	57.3282
180.39	14.4804
183.282	52.1157
186.175	5.25806
189.068	46.894
191.961	5.53412
194.853	39.1989
197.746	54.7046
200.639	76.9139
203.531	52.9556
206.424	89.6724
209.317	61.6636
212.209	67.1215
215.102	95.0918
217.995	69.0619
220.888	100.709
223.78	88.037
226.673	62.9317
229.566	77.5762
232.458	138.227
235.351	106.414
238.244	93.4932
241.137	68.139
244.029	107.451
246.922	89.1434
249.815	80.9887
252.707	68.7401
255.6	54.2943
258.493	65.3677
261.385	86.2006
264.278	69.0273
267.171	52.8835
270.064	70.8148
272.956	90.181
275.849	75.0294
278.742	73.2736
281.634	55.2384
284.527	79.5564
287.42	4.04987
290.312	24.2772
293.205	31.0634
296.098	39.6509
298.991	20.9321
301.883	6.46286
304.776	0.88208
307.669	19.2233
310.561	1.53223
313.454	2.40085
316.347	14.8365
319.24	5.30652
322.132	3.78992
325.025	14.4129
327.918	23.8845
330.81	13.0243
333.703	5.93079
336.596	1.7832
339.488	14.4805
342.381	7.26828
345.274	0.707703
348.166	12.8716
351.059	25.6711
353.952	18.3929
356.845	26.4225
359.737	9.3425
362.63	33.6694
365.523	32.6293
368.415	28.4231
371.308	14.9139
374.201	14.3016
377.094	19.6422
379.986	18.5189
382.879	18.4612
385.772	15.5315
388.664	15.286
391.557	24.8945
394.45	16.481
397.342	4.60556
400.235	19.5307
403.128	19.9017
406.021	8.60239
408.913	16.3548
411.806	33.1118
414.699	17.9745
417.591	37.3195
420.484	7.63117
423.377	42.4295
426.269	6.1344
429.162	22.2698
432.055	21.2189
434.947	33.5585
437.84	11.5203
440.733	8.5932
443.626	27.4536
446.518	17.9878
449.411	3.8562
452.304	10.0691
455.196	13.48
458.089	14.9389
460.982	20.2564
463.875	15.4483
466.767	30.552
469.66	15.1583
472.553	22.7504
475.445	11.2804
478.338	19.9808
481.231	20.5666
484.123	23.4725
487.016	27.147
489.909	9.02979
492.801	26.0203
495.694	18.5971
498.587	2.95203
501.48	40.5137
504.372	18.2403
507.265	15.5036
510.158	25.7323
513.05	13.0691
515.943	17.4539
518.836	11.2014
521.729	2.93884
524.621	19.313
527.514	3.92041
530.407	1.5871
533.299	10.4348
536.192	9.37129
539.085	7.36317
541.977	24.724
544.87	19.7559
547.763	15.2888
550.655	14.6164
553.548	26.5116
556.441	41.7551
559.334	0.011444
562.226	12.5706
565.119	27.5722
568.012	29.1449
570.904	26.5728
573.797	28.2133
576.69	28.0289
579.582	25.1175
582.475	10.1232
585.368	21.7096
588.261	15.5665
591.153	26.874
594.046	16.523
596.939	17.2475
599.831	4.08905
602.724	12.0383
605.617	30.5247
608.51	28.3047
611.402	22.9127
614.295	2.8007
617.188	9.43231
620.08	31.8899
622.973	10.5639
625.866	4.57397
628.758	9.87921
631.651	21.4469
634.544	2.89403
637.437	1.05017
640.329	36.3847
643.222	30.8185
646.115	3.78487
649.007	32.5199
651.9	34.28
654.793	9.10426
657.685	5.77727
660.578	29.1786
663.471	18.4534
666.364	22.4892
669.256	10.6522
672.149	38.318
675.042	26.2859
677.934	30.5462
680.827	24.8289
683.72	18.9868
686.612	34.7338
689.505	20.5916
692.398	34.6535
695.29	15.8825
698.183	20.8473
701.076	14.0478
703.969	23.008
706.861	20.7789
709.754	27.2149
712.647	25.1451
715.539	20.3194
718.432	13.1714
721.325	32.0588
724.217	16.0546
727.11	33.0061
730.003	3.20665
732.896	30.6055
735.788	51.5885
738.681	28.8514
741.574	8.27994
744.466	36.822
747.359	28.6296
750.252	30.5959
753.144	32.6101
756.037	18.8651
758.93	10.8284
761.823	5.19115
764.715	21.2592
767.608	34.364
770.501	30.9105
773.393	29.4481
776.286	13.1518
779.179	34.3561
782.072	13.559
784.964	18.3871
787.857	46.5005
790.75	29.8057
793.642	8.83058
796.535	33.8113
799.428	25.228
802.32	20.8871
805.213	9.86658
808.106	18.2827
810.999	24.9848
813.891	19.0052
816.784	9.02918
819.677	24.0314
822.569	2.21507
825.462	27.6576
828.355	12.2512
831.247	12.5273
834.14	33.971
837.033	10.862
839.926	5.84898
842.818	17.5484
845.711	6.28494
848.604	53.3489
851.496	2.32399
854.389	24.1131
857.282	12.3301
860.174	6.40718
863.067	19.4938
865.96	29.3272
868.853	22.9076
871.745	15.8901
874.638	14.9493
877.531	26.7033
880.423	18.5488
883.316	1.87254
886.209	7.82983
889.101	19.3461
891.994	15.6183
894.887	12.8312
897.78	29.4168
900.672	43.1582
903.565	43.4939
906.458	15.4113
909.35	31.22
912.243	7.2756
915.136	2.84499
918.029	19.558
920.921	26.2759
923.814	9.44818
926.707	22.4241
929.599	15.7866
932.492	29.5805
935.385	23.1615
938.277	16.0449
941.17	25.8209
944.063	14.5337
946.956	5.491
949.848	17.6242
952.741	17.4097
955.634	28.466
958.526	16.2515
961.419	43.3424
964.312	22.7893
967.204	11.5936
970.097	23.4317
972.99	20.1415
975.883	33.8314
978.775	23.5261
981.668	17.5631
984.561	20.6257
987.453	21.5937
990.346	18.9862
993.239	22.7688
996.131	17.1422
999.024	14.7596
1001.92	11.205
1004.81	34.8288
1007.7	10.7473
1010.6	16.3951
1013.49	19.415
1016.38	5.07665
1019.27	32.9974
1022.17	20.0876
1025.06	26.9936
1027.95	12.2312
1030.84	9.68626
1033.74	11.5905
1036.63	23.3177
1039.52	8.91811
1042.41	11.7872
1045.31	9.31401
1048.2	15.2934
1051.09	0.916473
1053.98	16.8342
1056.88	19.6622
1059.77	13.9733
1062.66	0.179092
1065.56	9.45566
1068.45	25.1023
1071.34	14.4683
1074.23	17.1925
1077.13	3.34494
1080.02	25.9494
1082.91	0.569992
1085.81	32.5686
1088.7	19.0681
1091.59	20.2233
1094.48	18.2606
1097.38	9.55418
1100.27	14.1304
1103.16	19.8888
1106.05	1.22823
1108.95	4.63086
1111.84	14.2053
1114.73	2.93733
1117.62	8.04198
1120.52	12.9104
1123.41	23.626
1126.3	21.6299
1129.2	3.12668
1132.09	29.8752
1134.98	7.4303
1137.87	18.7645
1140.77	14.8846
1143.66	13.279
1146.55	18.9275
1149.44	4.32086
1152.34	11.1604
1155.23	9.91524
1158.12	16.3159
1161.02	17.0866
1163.91	28.2631
1166.8	0.279495
1169.69	13.0297
1172.59	12.3493
1175.48	32.3545
1178.37	37.294
1181.26	1.39862
1184.16	19.4395
1187.05	0.342957
1189.94	11.1488
1192.84	12.9402
1195.73	5.1214
1198.62	13.7204
1201.51	8.31822
1204.41	6.54826
1207.3	14.3922
1210.19	34.6024
1213.08	16.6718
1215.98	29.4356
1218.87	27.6185
1221.76	14.9876
1224.65	14.2436
1227.55	14.3187
1230.44	26.4891
1233.33	17.4662
1236.23	19.6426
1239.12	35.4143
1242.01	32.6487
1244.9	6.84131
1247.8	14.5868
1250.69	23.3316
1253.58	0.692245
1256.47	30.3307
1259.37	21.1197
1262.26	27.14
1265.15	22.3164
1268.05	19.3074
