Measurement: Raman, 780 nm, unoriented, Raman Data Processed
Mineral: Pearceite
Rruff sample: R090041
Ideal chemistry: Cu(Ag,Cu)_6_Ag_9_As_2_S_11_
Locality: Uchucchacua mine, Oyon Province, Lima Department, Peru
Source: Tony Jones
Description: Aggregates of black hexagonal plates, X-ray diffraction indicates that it is type T2ac.
Measured chemistry: Cu_1.00_(Ag_4.99_Cu_1.01_)_Î£=6.00_Ag_10.62_As_2.02_S_11_
Raman shift (cm-1)	intensity
92.0654	0
95.4403	0.613876
98.8151	5.65489
102.19	0.749992
105.565	5.25263
108.939	7.00014
112.314	1.05328
115.689	3.90264
119.064	2.90308
122.439	6.29662
125.814	9.57919
129.188	8.46668
132.563	8.34921
135.938	11.3922
139.313	6.04803
142.688	2.74567
146.062	3.80796
149.437	1.22119
152.812	2.99357
156.187	1.29816
159.562	7.74897
162.936	9.83521
166.311	9.3688
169.686	7.45732
173.061	14.3332
176.436	9.13108
179.811	5.61128
183.185	4.83545
186.56	10.4957
189.935	11.1038
193.31	9.5811
196.685	11.3241
200.06	10.116
203.434	9.2527
206.809	10.1363
210.184	12.9308
213.559	7.6615
216.934	10.4888
220.308	12.3055
223.683	9.9357
227.058	8.86449
230.433	12.846
233.808	9.23948
237.182	11.6031
240.557	9.90442
243.932	9.54164
247.307	11.8403
250.682	7.97042
254.056	11.0898
257.431	9.60201
260.806	10.7392
264.181	8.00494
267.556	10.4449
270.931	9.15871
274.305	12.6344
277.68	4.28227
281.055	1.31954
284.43	4.87542
287.805	3.30991
291.18	0.334007
294.554	4.83477
297.929	4.08869
301.304	3.82518
304.679	4.59544
308.054	15.452
311.428	24.4515
314.803	34.5026
318.178	38.3488
321.553	44.2545
324.928	45.1102
328.302	38.3345
331.677	25.6891
335.052	24.4208
338.427	18.876
341.802	21.0349
345.176	17.1207
348.551	14.757
351.926	8.41795
355.301	8.68058
358.676	8.02988
362.051	18.4178
365.425	24.9029
368.8	28.1056
372.175	41.6814
375.55	39.0455
378.925	31.0452
382.3	16.4189
385.674	5.05959
389.049	7.39092
392.424	0.953018
395.799	4.52632
399.174	1.93982
402.548	0.866881
405.923	1.08876
409.298	0.419302
412.673	2.56891
416.048	1.01271
419.422	1.95799
422.797	7.16713
426.172	4.57756
429.547	2.78305
432.922	4.61926
436.296	2.80416
439.671	4.4327
443.046	7.38074
446.421	3.81506
449.796	8.05676
453.171	8.12303
456.545	4.11062
459.92	4.0525
463.295	3.60438
466.67	3.21175
470.045	7.90318
473.42	3.55037
476.794	0.479728
480.169	1.53401
483.544	6.79505
486.919	5.90253
490.293	7.20846
493.668	6.87966
497.043	4.0721
500.418	2.79319
503.793	4.61061
507.168	2.09181
510.542	2.42506
513.917	0.581072
517.292	5.05379
520.667	2.33183
524.042	4.58355
527.417	1.00579
530.791	3.06118
534.166	3.40258
537.541	6.87528
540.916	5.00399
544.291	2.52076
547.665	4.8822
551.04	4.74963
554.415	0.532001
557.79	0.495045
561.165	4.57158
564.539	4.86765
567.914	4.99061
571.289	4.38047
574.664	4.63293
578.039	3.87499
581.413	5.79876
584.788	4.55376
588.163	4.1918
591.538	1.43262
594.913	6.99469
598.288	1.8613
601.662	3.82068
605.037	2.34019
608.412	4.06466
611.787	0.861337
615.162	1.84089
618.537	7.78825
621.911	5.24204
625.286	7.10628
628.661	4.00613
632.036	1.04718
635.41	4.27493
638.785	6.09888
642.16	7.54769
645.535	4.9499
648.91	5.56876
652.285	4.89915
655.659	2.42308
659.034	1.70906
662.409	1.81093
665.784	0.186496
669.159	5.39471
672.534	2.96665
675.908	4.01224
679.283	0.253557
682.658	1.38172
686.033	2.12786
689.408	4.98564
692.782	4.26565
696.157	4.35266
699.532	1.78342
702.907	0.584805
706.282	1.33935
709.656	4.85655
713.031	5.94846
716.406	1.29636
719.781	3.91349
723.156	3.52974
726.53	6.32974
729.905	4.20611
733.28	1.43278
736.655	5.41639
740.03	2.3086
743.405	1.6656
746.779	2.38422
750.154	0.469108
753.529	2.74085
756.904	3.35397
760.279	0.223166
763.654	3.66031
767.028	5.64055
770.403	6.15796
773.778	4.52376
777.153	5.19489
780.528	4.95642
783.902	5.55637
787.277	4.57405
790.652	0.756866
794.027	0.665898
797.402	5.0808
800.776	4.48222
804.151	3.68753
807.526	4.29572
810.901	4.35178
814.276	0.005979
817.65	2.92538
821.025	3.40568
824.4	1.00958
827.775	2.63788
831.15	4.98335
834.525	0.309308
837.899	3.14598
841.274	4.83127
844.649	5.66638
848.024	3.5726
851.399	0.56029
854.774	4.94047
858.148	3.79007
861.523	5.89486
864.898	3.21074
868.273	4.08322
871.648	3.73097
875.022	3.1471
878.397	3.8105
881.772	5.07193
885.147	4.51959
888.522	2.68662
891.896	7.52292
895.271	2.46341
898.646	8.19481
902.021	4.58444
905.396	3.72703
908.77	5.64036
912.145	7.9326
915.52	3.38557
918.895	0.109548
922.27	1.07029
925.645	2.42968
929.019	4.19327
932.394	3.31425
935.769	1.33904
939.144	1.26843
942.519	2.78967
945.894	6.74951
949.268	2.16924
952.643	4.76414
956.018	3.16603
959.393	1.87298
962.768	6.39965
966.142	5.67432
969.517	5.45552
972.892	3.38352
976.267	5.33246
979.642	1.64094
983.016	0.449369
986.391	3.27058
989.766	2.87749
993.141	7.88967
996.516	1.6323
999.89	4.03285
1003.26	6.49202
1006.64	2.96644
1010.01	2.2578
1013.39	3.1932
1016.76	5.59098
1020.14	6.03848
1023.51	7.40341
1026.89	7.20894
1030.26	1.18573
1033.64	0.660543
1037.01	0.525422
1040.39	2.81856
1043.76	4.68821
1047.14	1.86091
1050.51	3.5331
1053.89	7.64447
1057.26	1.99639
1060.64	1.08149
1064.01	2.13925
1067.39	5.66519
1070.76	3.76865
1074.14	4.42903
1077.51	2.35898
1080.89	6.76011
1084.26	4.17965
1087.64	3.58725
1091.01	4.11632
1094.38	0.439008
1097.76	3.78326
1101.13	1.39731
1104.51	5.22914
1107.88	4.54813
1111.26	3.66
1114.63	0.88941
1118.01	5.33073
1121.38	0.296542
1124.76	2.28382
1128.13	4.96593
1131.51	3.67322
1134.88	5.66617
1138.26	6.52146
1141.63	8.32498
1145.01	2.43491
1148.38	6.03456
1151.76	5.04693
1155.13	3.5678
1158.51	5.56625
1161.88	5.52809
1165.26	5.2218
1168.63	4.56434
1172.01	4.59197
1175.38	4.37065
1178.76	1.88606
1182.13	7.39742
1185.51	6.66305
1188.88	9.14427
1192.26	5.18379
1195.63	6.83315
1199.01	2.63063
1202.38	4.63086
1205.75	3.72595
1209.13	6.31311
1212.5	3.6986
1215.88	5.31295
1219.25	3.45388
1222.63	6.50193
1226	5.64314
1229.38	3.51938
1232.75	2.6319
1236.13	9.76144
1239.5	5.85887
1242.88	4.71319
1246.25	3.78646
1249.63	2.88658
1253	5.77244
1256.38	2.20233
1259.75	4.89764
1263.13	6.29831
1266.5	5.95857
1269.88	3.24545
1273.25	4.57138
1276.62	1.48362
1280	3.9344
1283.38	1.40145
