Measurement: Raman, 780 nm, unoriented, Raman Data Processed
Mineral: Pearceite
Rruff sample: R050310
Ideal chemistry: Cu(Ag,Cu)_6_Ag_9_As_2_S_11_
Locality: Conception del Oro, Zacatecas, Mexico
Source: Eugene Schlepp
Description: Black metallic distorted crystals associated with quartz and galena. X-ray diffraction shows that this is pearceite-Tac.  Unable to obtain Raman spectra without burning the sample.
Measured chemistry: Cu(Ag_3.41_Cu_2.37_Fe_0.22_)_Σ=6_Ag_9_(As_1.41_Sb_0.59_)_Σ=2_S_11.00_
Raman shift (cm-1)	intensity
91.5332	0
94.908	1.55306
98.2828	2.94297
101.658	2.00357
105.032	4.96766
108.407	2.59533
111.782	1.74871
115.157	5.60902
118.532	4.08954
121.907	8.90152
125.281	4.70471
128.656	7.01612
132.031	6.61453
135.406	2.04834
138.781	3.82459
142.155	3.28238
145.53	1.24699
148.905	1.38278
152.28	3.1578
155.655	0.833776
159.03	0.7857
162.404	3.69008
165.779	3.78828
169.154	4.90873
172.529	3.44759
175.904	6.61848
179.278	4.65706
182.653	4.74175
186.028	6.15172
189.403	0.991199
192.778	8.74403
196.153	5.60698
199.527	6.21323
202.902	4.34469
206.277	8.49704
209.652	2.89971
213.027	4.30183
216.401	5.87331
219.776	2.21299
223.151	2.94126
226.526	6.03548
229.901	3.54828
233.275	1.63693
236.65	3.23966
240.025	3.1092
243.4	0.252009
246.775	4.41416
250.15	1.88034
253.524	4.18803
256.899	4.92414
260.274	3.42481
263.649	4.50842
267.024	3.57071
270.399	2.68234
273.773	3.69029
277.148	5.37998
280.523	1.41748
283.898	2.42325
287.273	4.06801
290.647	3.3042
294.022	5.34941
297.397	2.38758
300.772	4.4376
304.147	14.5598
307.522	14.1012
310.896	16.8117
314.271	14.7516
317.646	16.6201
321.021	12.9791
324.396	8.4992
327.77	3.0135
331.145	5.59014
334.52	5.56218
337.895	8.19554
341.27	3.07042
344.644	2.92941
348.019	2.96834
351.394	4.00082
354.769	4.24566
358.144	4.3372
361.519	5.89116
364.893	7.27304
368.268	8.35466
371.643	3.49807
375.018	5.3278
378.393	1.24108
381.767	1.43474
385.142	0.047364
388.517	0.665911
391.892	1.42246
395.267	1.45509
398.642	4.5509
402.016	1.77798
405.391	3.57958
408.766	1.37913
412.141	1.94136
415.516	2.4897
418.89	1.7282
422.265	0.309585
425.64	0.557988
429.015	2.45706
432.39	1.42774
435.765	1.12584
439.139	2.42149
442.514	1.91009
445.889	2.84571
449.264	2.52253
452.639	5.09539
456.014	0.188262
459.388	3.93622
462.763	3.00594
466.138	6.32862
469.513	3.46156
472.887	6.93059
476.262	2.50308
479.637	3.78892
483.012	5.21745
486.387	3.89555
489.762	0.024145
493.136	4.86067
496.511	2.92578
499.886	2.83411
503.261	0.663527
506.636	0.982805
510.01	3.4128
513.385	3.0089
516.76	5.1333
520.135	4.35307
523.51	4.29894
526.885	4.40894
530.259	2.6241
533.634	1.75192
537.009	0.832764
540.384	5.28231
543.759	2.70851
547.134	2.45184
550.508	3.35989
553.883	3.51877
557.258	1.72857
560.633	2.57183
564.008	0.705442
567.382	0.909716
570.757	1.06625
574.132	3.15739
577.507	4.905
580.882	5.26004
584.256	2.70528
587.631	6.03626
591.006	0.026241
594.381	3.86314
597.756	3.05611
601.131	1.88214
604.505	1.38732
607.88	2.50517
611.255	5.01831
614.63	3.3357
618.005	0.910374
621.38	1.84618
624.754	3.9353
628.129	1.79501
631.504	8.21836
634.879	1.92543
638.254	7.14334
641.628	0.016796
645.003	5.08226
648.378	0.723073
651.753	3.19596
655.128	0.749512
658.503	2.28346
661.877	2.80519
665.252	0.939121
668.627	2.8757
672.002	4.27301
675.377	3.37195
678.751	6.02079
682.126	2.24466
685.501	2.7237
688.876	0.705873
692.251	5.48406
695.625	3.67602
699	3.82127
702.375	0.953659
705.75	2.20918
709.125	2.96077
712.5	2.90502
715.874	4.21265
719.249	2.97878
722.624	3.28837
725.999	2.83108
729.374	5.65863
732.749	5.61477
736.123	3.29947
739.498	3.91441
742.873	0.40197
746.248	1.86674
749.623	4.11181
752.997	2.92702
756.372	3.2842
759.747	3.38773
763.122	2.07786
766.497	4.75485
769.871	0.709192
773.246	1.54137
776.621	1.52786
779.996	3.80821
783.371	1.30993
786.745	1.62174
790.12	3.4036
793.495	1.41176
796.87	0.27744
800.245	4.24371
803.62	2.04322
806.994	2.98174
810.369	2.03763
813.744	2.67347
817.119	3.07895
820.494	3.55253
823.869	0.919931
827.243	5.80075
830.618	1.53563
833.993	1.82558
837.368	0.084217
840.743	4.25869
844.117	2.84013
847.492	3.32667
850.867	7.05918
854.242	3.64504
857.617	4.5074
860.991	5.25563
864.366	0.086702
867.741	1.11307
871.116	1.35223
874.491	5.73768
877.866	0.563594
881.24	2.25419
884.615	0.418017
887.99	0.907785
891.365	3.68101
894.74	3.61475
898.115	0.474142
901.489	3.20527
904.864	1.5994
908.239	0.523949
911.614	2.97114
914.989	4.84129
918.363	5.25976
921.738	4.71588
925.113	8.15212
928.488	4.30851
931.863	5.34178
935.237	0.091428
938.612	2.0753
941.987	0.482891
945.362	3.54169
948.737	4.65863
952.112	0.969068
955.486	3.29782
958.861	4.33716
962.236	3.73081
965.611	1.54429
968.986	4.40482
972.361	2.93937
975.735	2.38966
979.11	6.28463
982.485	4.25204
985.86	2.18563
989.235	0.095815
992.609	4.98191
995.984	0.989379
999.359	3.18096
1002.73	1.04577
1006.11	4.57042
1009.48	4.92193
1012.86	3.01138
1016.23	2.5782
1019.61	2.1707
1022.98	2.43664
1026.36	3.89461
1029.73	1.55666
1033.11	2.98505
1036.48	1.39961
1039.86	0.842266
1043.23	1.65035
1046.61	2.46735
1049.98	4.16747
1053.36	4.63612
1056.73	5.33209
1060.11	4.68897
1063.48	0.427053
1066.86	1.6061
1070.23	4.09676
1073.61	1.29466
1076.98	4.63378
1080.36	4.68652
1083.73	4.1118
1087.1	6.06717
1090.48	4.44295
1093.85	2.16676
1097.23	2.62812
1100.6	2.74322
1103.98	0.710597
1107.35	5.88773
1110.73	4.49701
1114.1	0.378083
1117.48	2.55493
1120.85	1.88778
1124.23	4.86541
1127.6	3.57486
1130.98	2.18915
1134.35	3.61411
1137.73	5.35966
1141.1	2.18873
1144.48	0.244403
1147.85	4.34337
1151.23	3.90599
1154.6	1.13815
1157.97	3.24833
1161.35	1.12985
1164.72	8.15976
1168.1	3.81765
1171.47	3.83895
1174.85	6.81862
1178.22	3.27279
1181.6	5.68692
1184.97	4.57824
1188.35	4.06679
1191.72	6.55525
1195.1	1.76407
1198.47	6.02982
1201.85	2.00091
1205.22	0.283645
1208.6	3.56018
1211.97	2.64462
1215.35	1.29073
1218.72	1.88786
1222.1	3.67963
1225.47	3.58337
1228.85	3.6102
1232.22	0.68116
1235.6	1.9363
1238.97	3.25332
1242.35	1.65878
1245.72	4.59257
1249.1	0.20565
1252.47	3.95389
1255.85	6.92315
1259.22	0.649233
1262.6	2.17674
1265.97	2.98785
1269.34	4.76809
1272.72	2.3802
1276.09	3.3957
1279.47	4.35814
1282.84	1.83807
