Measurement: Raman, 780 nm, unoriented, Raman Data Processed
Mineral: Pellyite
Rruff sample: R150078
Ideal chemistry: Ba_2_CaFe^2+^_2_Si_6_O_17_
Locality: Gun Claim, Yukon Territory, Canada
Source: Gunnar Farber
Description: Colorless tabular or prismatic crystals with conchoidal fracture, associated with suzukiite (R150039), walstromite (R150079), and bavsiite.
Raman shift (cm-1)	intensity
108.916	0
112.291	22.3794
115.666	34.2588
119.041	17.9995
122.415	17.9443
125.79	40.1929
129.165	12.4658
132.54	4.06104
135.915	5.82812
139.29	21.0425
142.664	51.4287
146.039	77.4131
149.414	84.4717
152.789	62.2417
156.163	60.6514
159.538	70.9312
162.913	82.9102
166.288	51.0474
169.663	21.5181
173.038	17.0967
176.412	7.53906
179.787	22.3648
183.162	45.6768
186.537	33.4868
189.912	32.4048
193.286	8.97852
196.661	4.61035
200.036	11.1128
203.411	15.0957
206.786	15.0239
210.161	11.6929
213.535	6.89502
216.91	11.0342
220.285	13.2705
223.66	23.8491
227.035	32.3335
230.409	62.5474
233.784	96.1079
237.159	122.816
240.534	134.768
243.909	120.585
247.284	104.612
250.658	73.7227
254.033	42.7749
257.408	29.8032
260.783	42.354
264.158	54.6255
267.532	49.4082
270.907	35.8159
274.282	12.5889
277.657	11.5039
281.032	3.94531
284.406	2.60693
287.781	3.21826
291.156	14.0781
294.531	14.6074
297.906	29.3564
301.281	38.3096
304.655	37.9175
308.03	31.7583
311.405	15.1919
314.78	19.084
318.155	13.7476
321.529	27.7612
324.904	38.6675
328.279	75.2485
331.654	58.3867
335.029	45.125
338.404	48.9434
341.778	31.292
345.153	14.0229
348.528	5.38867
351.903	14.9883
355.278	1.87598
358.652	21.0537
362.027	41.9131
365.402	48.2544
368.777	70.2129
372.152	47.7256
375.526	72.678
378.901	101.403
382.276	163.711
385.651	228.018
389.026	259.572
392.401	241.204
395.775	197.531
399.15	150.668
402.525	132.993
405.9	121.625
409.275	109.804
412.649	120.49
416.024	146.982
419.399	202.436
422.774	251.946
426.149	294.513
429.524	289.795
432.898	189.338
436.273	99.157
439.648	52.4995
443.023	39.9451
446.398	14.4829
449.772	18.8704
453.147	28.4497
456.522	46.3503
459.897	40.4373
463.272	23.1777
466.647	9.52344
470.021	11.6663
473.396	21.3608
476.771	3.87231
480.146	6.28223
483.521	1.03247
486.895	3.16626
490.27	8.49805
493.645	3.60864
497.02	17.7236
500.395	16.2127
503.769	29.0877
507.144	25.9734
510.519	61.7222
513.894	66.4631
517.269	49.6731
520.644	42.6582
524.018	22.4766
527.393	10.6694
530.768	9.84326
534.143	2.85303
537.518	15.2717
540.892	21.5984
544.267	46.1572
547.642	94.4853
551.017	148.476
554.392	203.735
557.766	205.809
561.141	179.965
564.516	153.339
567.891	174.687
571.266	223.799
574.64	291.609
578.015	328.646
581.39	307.928
584.765	232.622
588.14	143.263
591.515	67.8494
594.889	27.2336
598.264	17.8823
601.639	7.09448
605.014	6.97339
608.389	3.46631
611.764	4.16064
615.138	6.60376
618.513	1.42603
621.888	3.33398
625.263	0.491699
628.638	5.26953
632.012	5.33887
635.387	5.61426
638.762	12.3806
642.137	5.41138
645.512	5.73731
648.886	5.82227
652.261	8.7998
655.636	3.37036
659.011	14.8494
662.386	16.749
665.76	6.06055
669.135	14.5991
672.51	25.4778
675.885	42.6221
679.26	88.5269
682.635	147.554
686.009	118.078
689.384	42.2656
692.759	25.405
696.134	11.2966
699.509	9.89453
702.884	0.996826
706.258	5.25732
709.633	1.32642
713.008	13.8096
716.383	13.1187
719.758	11.4109
723.132	1.53857
726.507	1.40967
729.882	5.77783
733.257	17.0471
736.632	19.5908
740.006	17.5312
743.381	11.8452
746.756	1.01514
750.131	4.47046
753.506	7.92627
756.88	1.62939
760.255	0.817383
763.63	1.04077
767.005	10.3953
770.38	26.2112
773.755	29.0979
777.129	13.6899
780.504	12.5422
783.879	19.3992
787.254	1.62378
790.629	11.4104
794.003	6.69458
797.378	4.56421
800.753	7.59009
804.128	5.39673
807.503	16.9709
810.878	13.9636
814.252	14.7671
817.627	12.0906
821.002	13.2769
824.377	9.33765
827.752	13.02
831.126	8.43701
834.501	4.20264
837.876	10.0247
841.251	9.70508
844.626	16.7388
848	17.9214
851.375	26.698
854.75	30.7385
858.125	30.9678
861.5	41.0559
864.875	37.4851
868.249	21.1746
871.624	20.3704
874.999	7.15649
878.374	3.50854
881.749	10.3677
885.123	16.3294
888.498	5.9856
891.873	4.35644
895.248	7.02637
898.623	9.59521
901.997	6.6875
905.372	10.7795
908.747	8.36401
912.122	8.70459
915.497	3.9834
918.872	2.97632
922.246	3.47803
925.621	3.36646
928.996	2.62695
932.371	0.957031
935.746	0.391846
939.12	4.37378
942.495	3.98535
945.87	2.50903
949.245	0.895508
952.62	2.69897
955.995	4.63501
959.369	18.9744
962.744	19.635
966.119	23.5627
969.494	26.644
972.869	23.1121
976.243	27.365
979.618	50.7383
982.993	92.654
986.368	174.891
989.743	218.573
993.117	124.409
996.492	60.3875
999.867	38.9978
1003.24	30.4849
1006.62	47.0415
1009.99	62.5244
1013.37	85.3113
1016.74	113.328
1020.12	114.482
1023.49	122.019
1026.87	138.698
1030.24	170.747
1033.62	220.859
1036.99	322.243
1040.37	427.219
1043.74	403.338
1047.12	239.22
1050.49	121.749
1053.86	69.8694
1057.24	47.4724
1060.61	35.8643
1063.99	29.4893
1067.36	46.6187
1070.74	56.27
1074.11	79.4971
1077.49	71.4717
1080.86	49.5344
1084.24	31.5666
1087.61	13.4285
1090.99	16.7385
1094.36	4.58814
1097.74	0.878174
1101.11	6.94434
1104.49	0.122803
1107.86	12.1404
1111.24	5.98682
1114.61	1.98975
1117.99	5.6897
1121.36	1.65552
1124.73	1.09448
1128.11	2.42773
1131.48	5.13086
1134.86	7.3457
1138.23	16.9477
1141.61	17.1282
1144.98	26.9253
1148.36	27.6116
1151.73	41.7581
1155.11	52.8821
1158.48	62.3655
1161.86	84.2163
1165.23	96.0115
1168.61	121.347
1171.98	124.844
1175.36	132.429
1178.73	124.761
1182.11	107.05
1185.48	78.096
1188.86	60.7446
1192.23	54.6565
1195.61	50.6614
1198.98	31.4365
1202.36	25.5386
1205.73	21.4189
1209.11	21.3569
1212.48	17.345
1215.86	16.9653
1219.23	11.2964
1222.61	8.91357
1225.98	13.1135
1229.35	7.09033
1232.73	5.00806
1236.1	7.646
1239.48	3.15234
1242.85	0.287598
1246.23	4.83179
1249.6	4.96411
1252.98	1.51489
1256.35	8.84058
1259.73	13.2659
1263.1	7.45728
1266.48	9.94434
1269.85	3.35034
1273.23	7.20581
1276.6	12.7446
1279.98	7.9978
1283.35	9.00122
