Measurement: Raman, 532 nm, unoriented, Raman Data Processed
Mineral: Pentlandite
Rruff sample: R060144
Ideal chemistry: (Ni,Fe)_9_S_8_
Locality: Worthington, Ontario, Canada
Source: University of Arizona Mineral Museum
Description: Bronze-white metallic massive
Measured chemistry: (Fe_4.80_Ni_4.12_Co_0.08_)_Î£=9_S_8_
Raman shift (cm-1)	intensity
121.119	0
124.494	0.608973
127.869	1.34948
131.244	0.25597
134.619	1.04135
137.993	4.11894
141.368	3.20607
144.743	3.41569
148.118	3.32196
151.493	6.24779
154.867	7.11091
158.242	4.68869
161.617	5.18283
164.992	4.38789
168.367	4.54147
171.742	3.96157
175.116	3.67391
178.491	4.16434
181.866	3.10927
185.241	2.77331
188.616	1.89233
191.99	2.44115
195.365	1.86316
198.74	1.673
202.115	1.14513
205.49	0.938347
208.864	1.42855
212.239	1.20877
215.614	0.735289
218.989	0.965824
222.364	0.139351
225.739	0.130936
229.113	0.341894
232.488	0.542748
235.863	0.058815
239.238	0.00808
242.613	0.05136
245.988	0.061049
249.362	0.421746
252.737	0.555584
256.112	0.874514
259.487	1.00045
262.862	0.671828
266.236	0.046001
269.611	0.11562
272.986	0.113997
276.361	0.147198
279.736	0.482398
283.111	0.0829
286.485	0.305592
289.86	0.199397
293.235	0.236499
296.61	0.494617
299.985	0.40007
303.36	0.646671
306.734	0.787495
310.109	0.681526
313.484	0.658579
316.859	0.673642
320.234	0.660734
323.608	0.696714
326.983	0.614454
330.358	0.011159
333.733	0.226489
337.108	0.055531
340.483	0.309919
343.857	0.632779
347.232	0.568623
350.607	1.37144
353.982	2.58451
357.357	2.84267
360.731	3.38807
364.106	3.89175
367.481	3.83839
370.856	4.39837
374.231	3.79276
377.606	2.97901
380.98	2.58384
384.355	1.18392
387.73	0.518053
391.105	0.633814
394.48	0.019811
397.854	0.405203
401.229	0.364971
404.604	0.163953
407.979	0.36067
411.354	0.199195
414.729	0.348027
418.103	0.387516
421.478	0.300607
424.853	0.437793
428.228	0.150398
431.603	0.426534
434.978	0.059281
438.352	0.24682
441.727	0.068477
445.102	0.184835
448.477	0.37442
451.852	0.061718
455.226	0.084194
458.601	0.085747
461.976	0.804437
465.351	0.002793
468.726	0.525632
472.101	0.491026
475.475	0.520706
478.85	0.683605
482.225	0.893075
485.6	0.734721
488.975	0.472452
492.349	0.178488
495.724	0.590415
499.099	0.649682
502.474	0.348066
505.849	0.379086
509.224	0.02688
512.598	0.464717
515.973	0.191742
519.348	0.531558
522.723	0.109389
526.098	0.797974
529.472	0.308744
532.847	0.323384
536.222	0.525414
539.597	0.793738
542.972	0.120077
546.347	0.289681
549.721	0.775053
553.096	0.352763
556.471	0.161594
559.846	0.069309
563.221	0.313113
566.596	0.386235
569.97	0.077991
573.345	0.021834
576.72	0.585656
580.095	0.134085
583.47	0.867917
586.845	1.008
590.219	0.205896
593.594	0.065182
596.969	0.381345
600.344	0.897605
603.719	0.112448
607.093	0.551452
610.468	0.073826
613.843	0.63074
617.218	0.346991
620.593	0.654287
623.967	0.345091
627.342	0.593829
630.717	0.322501
634.092	0.631981
637.467	0.424144
640.842	0.753454
644.216	0.302699
647.591	0.266861
650.966	0.068206
654.341	0.484501
657.716	0.410846
661.091	0.487421
664.465	0.302432
667.84	0.237314
671.215	0.297596
674.59	0.176722
677.965	0.339658
681.34	0.287465
684.714	0.111796
688.089	0.024243
691.464	0.241304
694.839	0.424351
698.214	0.29458
701.588	0.220931
704.963	0.185555
708.338	0.241459
711.713	0.103526
715.088	0.644192
718.462	0.148298
721.837	0.051838
725.212	0.029961
728.587	0.693256
731.962	0.117835
735.337	0.178941
738.712	0.086593
742.086	0.586874
745.461	0.518143
748.836	0.034546
752.211	0.094671
755.586	0.024296
758.96	0.576314
762.335	0.287434
765.71	0.626648
769.085	0.656991
772.46	0.093562
775.835	0.749954
779.209	0.302173
782.584	0.463365
785.959	0.481918
789.334	0.644618
792.709	0.108203
796.083	0.904262
799.458	0.873149
802.833	0.167514
806.208	0.048154
809.583	0.401963
812.957	0.106688
816.332	0.882463
819.707	0.77109
823.082	0.571329
826.457	0.965912
829.832	0.820573
833.207	0.856611
836.581	0.769284
839.956	0.754103
843.331	0.844355
846.706	0.786796
850.081	1.15724
853.455	0.830654
856.83	1.1538
860.205	0.809678
863.58	0.77075
866.955	0.912563
870.33	0.716687
873.704	0.94165
877.079	0.53824
880.454	0.432078
883.829	0.850408
887.204	0.55228
890.578	0.014358
893.953	0.872896
897.328	0.13066
900.703	0.38259
904.078	0.229101
907.452	0.102362
910.827	0.349234
914.202	0.406619
917.577	0.011362
920.952	0.192964
924.327	0.558795
927.702	0.339064
931.076	0.054656
934.451	0.304543
937.826	0.517828
941.201	0.03682
944.576	0.098282
947.95	0.468797
951.325	0.149202
954.7	0.024097
958.075	0.222457
961.45	0.32842
964.824	0.027142
968.199	0.772521
971.574	0.193533
974.949	0.597045
978.324	0.138464
981.699	0.102042
985.073	0.311501
988.448	0.744882
991.823	0.86102
995.198	0.938995
998.573	0.003004
1001.95	0.136153
1005.32	0.235368
1008.7	0.168558
1012.07	0.242448
1015.45	0.085541
1018.82	1.14782
1022.2	0.773901
1025.57	0.438322
1028.95	0.873482
1032.32	0.385808
1035.7	0.637196
1039.07	0.793797
1042.44	0.505771
1045.82	0.006246
1049.19	0.234868
1052.57	0.540545
1055.94	0.430937
1059.32	0.116558
1062.69	0.577526
1066.07	0.108393
1069.44	0.309274
1072.82	0.337296
1076.19	0.467328
1079.57	0.347278
1082.94	0.037249
1086.32	0.483449
1089.69	0.316778
1093.07	0.478132
1096.44	0.900162
1099.82	0.507583
1103.19	0.450756
1106.57	0.708263
1109.94	0.37873
1113.32	0.186038
1116.69	0.047548
1120.07	0.006131
1123.44	0.177798
1126.82	0.013936
1130.19	0.445344
1133.57	0.134809
1136.94	0.633244
1140.32	0.373486
1143.69	0.439911
1147.07	0.571112
1150.44	0.110252
1153.81	0.433078
1157.19	0.155725
1160.56	0.549885
1163.94	0.630364
1167.31	0.571355
1170.69	0.827056
1174.06	0.059619
1177.44	0.069482
1180.81	0.279181
1184.19	0.2483
1187.56	1.06204
1190.94	0.156725
1194.31	0.613446
1197.69	0.01909
1201.06	0.428457
1204.44	0.835796
1207.81	0.206649
1211.19	0.634708
1214.56	0.262296
1217.94	0.370062
1221.31	0.213432
1224.69	0.363172
1228.06	0.162503
1231.43	1.05687
1234.81	0.301759
1238.18	0.033724
1241.56	0.080671
1244.93	0.604288
1248.31	0.053916
1251.68	0.883626
1255.06	0.206073
1258.43	0.510967
1261.81	0.805936
1265.18	0.206495
1268.56	0.267847
1271.93	0.009669
1275.31	0.017922
1278.68	0.481126
1282.06	1.01289
1285.43	0.778616
1288.81	0.487286
1292.18	0.02476
1295.56	0.249818
1298.93	0.442571
1302.31	0
