Measurement: Raman, 532 nm, unoriented, Raman Data Processed
Mineral: Peprossiite-(Ce)
Rruff sample: R110144
Ideal chemistry: (Ce,La)Al_2_B_4_O_10.67_
Locality: Capranica, Vico Lake, Viterbo Province, Latium, Italy
Source: Donald M Doell
Description: Yellow platy crystals frozen in matrix
Raman shift (cm-1)	intensity
180.648	0
183.541	2.59203
186.433	9.09249
189.326	16.4326
192.219	21.2495
195.112	21.3612
198.004	16.7158
200.897	19.295
203.79	17.3388
206.682	17.8778
209.575	20.6977
212.468	21.9497
215.36	20.0738
218.253	18.841
221.146	17.5359
224.038	15.1905
226.931	16.9184
229.824	16.3712
232.717	15.6819
235.609	15.4214
238.502	17.0027
241.395	12.2387
244.287	11.1807
247.18	9.02558
250.073	8.38462
252.965	6.53888
255.858	1.99636
258.751	0.871071
261.644	0.257172
264.536	1.46869
267.429	3.12409
270.322	1.54353
273.214	0.688126
276.107	0.979385
279	2.08099
281.892	4.92422
284.785	5.61991
287.678	5.0396
290.571	5.09905
293.463	2.43738
296.356	4.07322
299.249	3.2616
302.141	4.32764
305.034	7.3844
307.927	8.68156
310.82	12.263
313.712	7.74008
316.605	5.94605
319.498	5.32227
322.39	1.80419
325.283	0.648376
328.176	0.916405
331.068	0.428543
333.961	2.35085
336.854	2.60982
339.747	5.42116
342.639	3.68396
345.532	5.10653
348.425	7.38686
351.317	7.0662
354.21	5.12125
357.103	3.76499
359.995	3.39266
362.888	1.85576
365.781	0.841278
368.673	1.24551
371.566	0.657112
374.459	3.98898
377.352	6.07035
380.244	10.2074
383.137	12.9326
386.03	17.3755
388.922	22.0134
391.815	23.9
394.708	30.9061
397.601	34.1889
400.493	37.4584
403.386	33.2426
406.279	29.6949
409.171	29.2656
412.064	25.0038
414.957	24.587
417.849	23.3803
420.742	22.113
423.635	20.1324
426.527	19.9988
429.42	23.5149
432.313	23.6443
435.206	21.1081
438.098	19.8437
440.991	18.679
443.884	16.9959
446.776	17.636
449.669	17.9754
452.562	15.5528
455.454	11.3519
458.347	10.6571
461.24	9.55937
464.133	6.51903
467.025	4.69835
469.918	0.232361
472.811	2.55248
475.703	2.19074
478.596	1.37138
481.489	1.5787
484.382	0.816788
487.274	1.16541
490.167	1.0772
493.06	1.20372
495.952	3.21304
498.845	4.81953
501.738	3.35308
504.63	5.39633
507.523	7.38545
510.416	10.1522
513.308	9.56315
516.201	11.4335
519.094	10.7924
521.987	13.6301
524.879	15.0289
527.772	14.9264
530.665	16.4468
533.557	16.8728
536.45	16.7691
539.343	16.8188
542.236	14.4684
545.128	17.8235
548.021	16.4477
550.914	17.5343
553.806	16.3158
556.699	15.8997
559.592	15.0773
562.484	14.4674
565.377	14.1132
568.27	14.5352
571.163	13.4338
574.055	11.5048
576.948	13.3602
579.841	12.6141
582.733	13.8641
585.626	12.2557
588.519	13.4717
591.411	12.2468
594.304	11.1481
597.197	12.7115
600.09	8.67578
602.982	6.58099
605.875	4.82036
608.768	4.18953
611.66	3.40689
614.553	2.32304
617.446	0.518509
620.338	0.322601
623.231	0.039833
626.124	1.65063
629.016	2.14227
631.909	3.66861
634.802	2.96191
637.695	1.90913
640.587	3.34634
643.48	2.60553
646.373	2.45152
649.265	0.743767
652.158	0.486603
655.051	0.567307
657.943	0.522865
660.836	0.044579
663.729	1.92606
666.622	0.973587
669.514	1.02216
672.407	0.44165
675.3	1.21616
678.192	4.03544
681.085	4.64212
683.978	5.57193
686.87	6.53152
689.763	9.85718
692.656	10.7317
695.549	11.7148
698.441	14.1783
701.334	14.3209
704.227	14.458
707.119	13.8877
710.012	15.8006
712.905	15.9443
715.798	13.8471
718.69	15.9932
721.583	11.5626
724.476	13.9932
727.368	14.8572
730.261	15.4609
733.154	15.7833
736.046	16.1361
738.939	16.095
741.832	17.4215
744.725	15.7832
747.617	18.2065
750.51	15.3888
753.403	15.6765
756.295	12.4429
759.188	9.78646
762.081	7.60307
764.973	6.16045
767.866	3.96756
770.759	3.14042
773.652	2.17049
776.544	0.208405
779.437	1.61566
782.33	0.016632
785.222	1.38981
788.115	0.461655
791.008	0.441452
793.9	0.139755
796.793	1.2033
799.686	2.1047
802.578	0.121346
805.471	2.09209
808.364	5.1428
811.257	6.41361
814.149	7.13294
817.042	9.14665
819.935	12.5687
822.827	15.4347
825.72	16.0058
828.613	19.2181
831.505	21.9012
834.398	26.4089
837.291	28.7049
840.184	29.8705
843.076	32.8683
845.969	36.3716
848.862	34.9767
851.754	37.2795
854.647	38.4212
857.54	40.8846
860.433	41.0995
863.325	40.8936
866.218	43.4147
869.111	41.8859
872.003	44.2565
874.896	42.776
877.789	40.4499
880.681	36.9031
883.574	34.3956
886.467	32.1428
889.36	27.7335
892.252	23.5951
895.145	18.8955
898.038	13.3163
900.93	8.71828
903.823	6.84831
906.716	2.84398
909.608	0.021378
912.501	0.338867
915.394	0.881424
918.287	1.56087
921.179	1.36847
924.072	1.9322
926.965	1.6886
929.857	0.393616
932.75	2.34444
935.643	3.63326
938.535	8.8308
941.428	12.0489
944.321	19.9097
947.213	20.526
950.106	28.2465
952.999	35.317
955.892	41.0173
958.784	49.6947
961.677	56.4693
964.57	60.8214
967.462	70.2692
970.355	76.5879
973.248	81.1952
976.14	81.9931
979.033	83.6577
981.926	88.9458
984.819	90.2742
987.711	94.3182
990.604	94.3563
993.497	90.9066
996.389	91.35
999.282	84.4855
1002.17	85.9284
1005.07	78.8653
1007.96	75.2742
1010.85	69.9433
1013.75	65.392
1016.64	59.4758
1019.53	53.4344
1022.42	49.6524
1025.32	45.0043
1028.21	40.6099
1031.1	37.3383
1033.99	31.3909
1036.89	31.8781
1039.78	26.9169
1042.67	26.8554
1045.57	21.9877
1048.46	21.8607
1051.35	21.8017
1054.24	18.6099
1057.14	17.3072
1060.03	15.8746
1062.92	13.2974
1065.81	11.5004
1068.71	7.71893
1071.6	7.52006
1074.49	7.56039
1077.38	1.63677
1080.28	3.17238
1083.17	1.0813
1086.06	0.571259
1088.96	1.35449
1091.85	2.55364
1094.74	1.18053
1097.63	1.41506
1100.53	1.67155
1103.42	1.04377
1106.31	0.059578
1109.2	0.461334
1112.1	3.47377
1114.99	3.30675
1117.88	5.39925
1120.78	7.92988
1123.67	9.89124
1126.56	12.6769
1129.45	16.1472
1132.35	19.1601
1135.24	24.7669
1138.13	29.2757
1141.02	32.9402
1143.92	38.3224
1146.81	39.9882
1149.7	43.9608
1152.6	48.0059
1155.49	47.244
1158.38	49.8941
1161.27	49.7456
1164.17	49.2627
1167.06	47.3661
1169.95	47.3142
1172.84	45.5207
1175.74	42.6063
1178.63	39.422
1181.52	37.9894
1184.41	30.3844
1187.31	30.8531
1190.2	24.1587
1193.09	18.6625
1195.99	17.4
1198.88	14.7615
1201.77	11.4494
1204.66	8.15494
1207.56	7.17971
1210.45	4.75224
1213.34	3.20644
1216.23	0.962669
1219.13	0.734413
1222.02	0.654945
1224.91	1.67285
1227.81	0.899918
1230.7	0.23835
1233.59	1.89037
1236.48	0.954865
1239.38	0.777306
1242.27	2.17625
1245.16	2.59174
1248.05	3.1238
1250.95	2.67329
1253.84	6.94135
1256.73	6.58221
1259.62	8.67756
1262.52	7.48446
1265.41	10.7319
1268.3	7.7867
1271.2	8.05431
1274.09	8.70492
1276.98	7.73243
1279.87	5.81302
1282.77	4.70893
1285.66	3.87073
1288.55	0.489761
1291.44	3.23753
1294.34	0.211143
1297.23	2.44767
1300.12	3.14366
1303.02	0
