Measurement: Raman, 780 nm, unoriented, Raman Data Processed
Mineral: Perovskite
Rruff sample: R060345
Ideal chemistry: CaTi^4+^O_3_
Locality: Latrappe, Oka District, Quebec, Canada
Source: Michael Scott
Description: Black square prismatic crystals associated with white calcite, yellow monticellite and yellow diopside
Measured chemistry: (Ca_0.77_Na_0.20_Ce_0.02_La_0.01_)_Σ=1_(Ti_0.50_Nb^5+^_0.36_Fe^3+^_0.08_Fe^2+^_0.03_Mg_0.02_Al_0.01_)_Σ=1_O_3_ ; trace amounts of Mn ; Fe^2+^ and Fe^3+^ estimated by charge balance
Raman shift (cm-1)	intensity
91.5332	0
94.908	10.8322
98.2828	6.87414
101.658	6.90977
105.032	7.65376
108.407	3.65431
111.782	2.71363
115.157	1.52332
118.532	3.70287
121.907	5.62533
125.281	2.3197
128.656	1.61359
132.031	2.92028
135.406	0.154449
138.781	6.42701
142.155	1.56698
145.53	1.71331
148.905	4.19677
152.28	5.89438
155.655	5.5731
159.03	3.25169
162.404	3.93399
165.779	7.54296
169.154	6.02231
172.529	4.21918
175.904	3.15304
179.278	2.33534
182.653	2.36961
186.028	1.32539
189.403	9.83725
192.778	5.63237
196.153	1.99665
199.527	5.24797
202.902	3.36697
206.277	7.80736
209.652	1.44146
213.027	5.44667
216.401	8.28325
219.776	6.32645
223.151	4.94454
226.526	4.30352
229.901	4.89112
233.275	6.5939
236.65	4.96955
240.025	6.48424
243.4	3.2552
246.775	1.82035
250.15	2.52507
253.524	1.79384
256.899	0.920877
260.274	3.96667
263.649	6.51348
267.024	3.16546
270.399	0.608612
273.773	1.76687
277.148	1.59486
280.523	3.84232
283.898	1.06637
287.273	1.52286
290.647	0.757893
294.022	3.73687
297.397	2.00452
300.772	0.575068
304.147	1.23646
307.522	1.69776
310.896	6.75704
314.271	3.06393
317.646	5.36189
321.021	2.5988
324.396	1.03363
327.77	4.62383
331.145	1.18437
334.52	7.74156
337.895	3.58099
341.27	4.98496
344.644	4.19459
348.019	4.70695
351.394	4.10869
354.769	0.394333
358.144	4.12595
361.519	3.75599
364.893	1.0011
368.268	4.48986
371.643	3.38164
375.018	7.22775
378.393	1.62256
381.767	2.20672
385.142	1.31293
388.517	4.39535
391.892	0.390916
395.267	2.31089
398.642	4.06184
402.016	3.95897
405.391	4.86275
408.766	2.5268
412.141	3.30149
415.516	0.304428
418.89	4.25441
422.265	1.36303
425.64	4.82782
429.015	1.687
432.39	3.94268
435.765	2.71701
439.139	2.46979
442.514	6.89647
445.889	7.86602
449.264	3.26456
452.639	3.14481
456.014	4.06277
459.388	4.19865
462.763	4.54385
466.138	5.67554
469.513	4.56487
472.887	2.53728
476.262	3.80562
479.637	0.041149
483.012	4.11112
486.387	4.8447
489.762	2.51934
493.136	0.235688
496.511	3.28025
499.886	0.927189
503.261	0.769887
506.636	3.71871
510.01	2.39772
513.385	3.64622
516.76	5.96745
520.135	1.0799
523.51	3.30849
526.885	2.05798
530.259	4.72203
533.634	4.03467
537.009	5.54338
540.384	6.75706
543.759	3.64343
547.134	3.97227
550.508	2.79501
553.883	5.9548
557.258	4.26241
560.633	5.21324
564.008	3.10391
567.382	4.44132
570.757	3.35884
574.132	4.15132
577.507	3.39374
580.882	4.6672
584.256	5.07177
587.631	2.58829
591.006	4.45903
594.381	4.11924
597.756	3.3577
601.131	3.79284
604.505	2.28793
607.88	1.43966
611.255	3.96534
614.63	0.388073
618.005	2.86283
621.38	2.18975
624.754	3.72504
628.129	3.47078
631.504	3.96851
634.879	2.64013
638.254	5.06271
641.628	3.94184
645.003	0.518009
648.378	5.10681
651.753	3.97205
655.128	4.88191
658.503	0.713546
661.877	2.64779
665.252	4.02152
668.627	0.374472
672.002	5.05664
675.377	3.89188
678.751	3.49487
682.126	1.74348
685.501	1.77208
688.876	1.28837
692.251	7.35737
695.625	0.761719
699	1.16285
702.375	3.28757
705.75	0.914743
709.125	1.72752
712.5	2.2843
715.874	1.97577
719.249	3.11666
722.624	0.563037
725.999	0.4563
729.374	0.086221
732.749	1.14469
736.123	4.02171
739.498	4.09054
742.873	8.33399
746.248	8.54106
749.623	7.64396
752.997	8.54828
756.372	9.62426
759.747	9.71705
763.122	11.114
766.497	8.83104
769.871	14.6896
773.246	10.744
776.621	13.9771
779.996	14.0476
783.371	10.9381
786.745	13.9848
790.12	7.3685
793.495	10.8
796.87	10.9364
800.245	11.8437
803.62	8.17926
806.994	6.74448
810.369	6.5294
813.744	8.26331
817.119	7.54769
820.494	6.75753
823.869	2.821
827.243	5.3601
830.618	8.18784
833.993	5.09517
837.368	4.33552
840.743	3.57178
844.117	3.98799
847.492	3.67642
850.867	0.883961
854.242	0.952202
857.617	2.89004
860.991	3.43558
864.366	1.64693
867.741	0.211875
871.116	2.93592
874.491	2.29429
877.866	2.94912
881.24	1.21301
884.615	1.93946
887.99	1.48725
891.365	0.444205
894.74	3.80718
898.115	1.68102
901.489	3.63897
904.864	3.38086
908.239	2.01322
911.614	4.21744
914.989	0.548439
918.363	3.51591
921.738	1.18312
925.113	2.88875
928.488	2.25206
931.863	0.459415
935.237	5.66018
938.612	2.89436
941.987	3.4023
945.362	2.38702
948.737	4.84895
952.112	0.140368
955.486	4.33395
958.861	3.84883
962.236	5.12982
965.611	4.43123
968.986	3.55469
972.361	5.31451
975.735	4.19911
979.11	2.04078
982.485	3.99317
985.86	3.15003
989.235	5.87103
992.609	2.81144
995.984	3.75996
999.359	7.52872
1002.73	0.3454
1006.11	4.59674
1009.48	4.66708
1012.86	5.57107
1016.23	2.22478
1019.61	2.171
1022.98	3.88773
1026.36	1.84575
1029.73	2.51654
1033.11	3.57732
1036.48	3.5594
1039.86	1.27391
1043.23	1.73954
1046.61	2.46194
1049.98	1.26141
1053.36	2.6164
1056.73	0.017459
1060.11	3.09261
1063.48	4.6032
1066.86	1.23708
1070.23	1.73145
1073.61	2.62417
1076.98	0.356838
1080.36	5.76439
1083.73	2.36177
1087.1	4.63829
1090.48	2.66933
1093.85	0.026379
1097.23	1.97324
1100.6	1.21058
1103.98	5.21388
1107.35	4.52903
1110.73	2.05227
1114.1	1.76663
1117.48	2.65601
1120.85	3.57512
1124.23	2.14991
1127.6	2.23494
1130.98	4.05876
1134.35	5.41451
1137.73	2.16717
1141.1	3.33004
1144.48	1.21607
1147.85	3.50605
1151.23	0.940455
1154.6	3.31429
1157.97	2.80783
1161.35	3.26806
1164.72	4.41192
1168.1	5.34279
1171.47	2.16742
1174.85	2.53823
1178.22	2.357
1181.6	1.94528
1184.97	4.53748
1188.35	2.66362
1191.72	0.292269
1195.1	6.07595
1198.47	3.04864
1201.85	4.36053
1205.22	3.30786
1208.6	3.31055
1211.97	3.53185
1215.35	6.04633
1218.72	4.91091
1222.1	2.63673
1225.47	2.36274
1228.85	5.77198
1232.22	2.94487
1235.6	0.667399
1238.97	1.03281
1242.35	2.18717
1245.72	3.31589
1249.1	3.44488
1252.47	3.90361
1255.85	6.20708
1259.22	0.06928
1262.6	2.40709
1265.97	3.28647
1269.34	2.23007
1272.72	3.02197
1276.09	5.7892
1279.47	2.96109
1282.84	3.66072
