Measurement: Raman, 532 nm, unoriented, Raman Data Processed
Mineral: Perovskite
Rruff sample: R060345
Ideal chemistry: CaTi^4+^O_3_
Locality: Latrappe, Oka District, Quebec, Canada
Source: Michael Scott
Description: Black square prismatic crystals associated with white calcite, yellow monticellite and yellow diopside
Measured chemistry: (Ca_0.77_Na_0.20_Ce_0.02_La_0.01_)_Σ=1_(Ti_0.50_Nb^5+^_0.36_Fe^3+^_0.08_Fe^2+^_0.03_Mg_0.02_Al_0.01_)_Σ=1_O_3_ ; trace amounts of Mn ; Fe^2+^ and Fe^3+^ estimated by charge balance
Raman shift (cm-1)	intensity
171.006	0
173.898	3.70947
176.791	0.993652
179.684	3.09131
182.577	7.10474
185.469	2.27429
188.362	21.5139
191.255	13.5156
194.147	0.283325
197.04	1.37366
199.933	1.15784
202.825	6.29034
205.718	12.9313
208.611	1.66846
211.504	8.91211
214.396	11.4432
217.289	5.73731
220.182	12.0793
223.074	9.62744
225.967	9.19074
228.86	10.8998
231.752	14.8728
234.645	23.4744
237.538	12.4172
240.43	8.75061
243.323	11.6362
246.216	0.105042
249.109	1.58093
252.001	2.41797
254.894	2.27539
257.787	5.77564
260.679	1.21716
263.572	0.881714
266.465	3.87775
269.358	4.72314
272.25	7.89465
275.143	3.8045
278.036	2.29346
280.928	3.2973
283.821	2.48035
286.714	6.91956
289.606	4.68854
292.499	11.8363
295.392	5.22211
298.284	7.46991
301.177	0.027771
304.07	1.73578
306.963	3.83398
309.855	13.38
312.748	9.21588
315.641	10.1101
318.533	14.1675
321.426	12.8232
324.319	6.87384
327.212	18.6169
330.104	11.0239
332.997	17.2009
335.89	11.2588
338.782	18.8165
341.675	16.6015
344.568	18.5255
347.46	13.9175
350.353	18.6869
353.246	11.2299
356.139	11.7788
359.031	16.8106
361.924	16.8599
364.817	19.1926
367.709	14.029
370.602	13.5475
373.495	12.3809
376.387	5.58282
379.28	14.4644
382.173	10.5568
385.065	5.79321
387.958	7.16303
390.851	0.968079
393.744	3.66174
396.636	1.27161
399.529	3.64282
402.422	2.23816
405.314	7.5531
408.207	2.47199
411.1	3.42835
413.993	5.43164
416.885	0.829102
419.778	0.651245
422.671	9.57727
425.563	2.73328
428.456	4.62207
431.349	3.42004
434.241	3.07391
437.134	6.27075
440.027	5.18048
442.92	7.05707
445.812	6.80579
448.705	5.60022
451.598	7.526
454.49	6.06433
457.383	14.8141
460.276	12.2741
463.168	6.22266
466.061	11.089
468.954	11.5898
471.846	6.37854
474.739	6.48657
477.632	7.04822
480.525	9.03754
483.417	8.11945
486.31	12.389
489.203	7.73297
492.095	9.98383
494.988	12.1556
497.881	10.0674
500.774	15.8614
503.666	10.2458
506.559	14.6703
509.452	14.3648
512.344	7.52118
515.237	14.2037
518.13	9.76172
521.022	7.05225
523.915	14.9908
526.808	15.6615
529.701	15.1754
532.593	16.1024
535.486	9.50183
538.379	15.152
541.271	20.7897
544.164	13.5626
547.057	11.5989
549.949	11.811
552.842	10.9898
555.735	12.6958
558.628	6.29517
561.52	7.90967
564.413	3.55817
567.306	9.25732
570.198	5.06952
573.091	8.69251
575.984	3.41913
578.876	3.63605
581.769	6.03979
584.662	7.41174
587.554	5.67377
590.447	4.70398
593.34	1.43341
596.233	4.14728
599.125	3.4826
602.018	2.34644
604.911	4.0791
607.803	4.05127
610.696	6.94946
613.589	7.31958
616.481	3.65179
619.374	1.1319
622.267	2.31348
625.16	3.03839
628.052	2.85089
630.945	4.61865
633.838	7.24756
636.73	6.88196
639.623	9.27246
642.516	2.83124
645.409	5.57245
648.301	8.36938
651.194	7.39691
654.087	12.9436
656.979	11.7845
659.872	11.7778
662.765	9.89032
665.657	0.391541
668.55	5.29529
671.443	7.0896
674.335	9.96228
677.228	10.2023
680.121	3.39526
683.014	11.3893
685.906	11.8808
688.799	2.27466
691.692	6.35681
694.584	10.859
697.477	1.87067
700.37	2.05652
703.263	4.03388
706.155	1.24896
709.048	2.61072
711.941	5.28198
714.833	4.99994
717.726	3.38696
720.619	0.482117
723.511	0.33136
726.404	1.89203
729.297	3.55176
732.189	0.521057
735.082	3.84778
737.975	9.92133
740.868	11.2899
743.76	3.76544
746.653	12.3965
749.546	17.1413
752.438	12.7368
755.331	11.331
758.224	20.4127
761.116	22.8032
764.009	19.517
766.902	25.3835
769.795	26.0298
772.687	37.3331
775.58	29.2906
778.473	33.2672
781.365	39.35
784.258	40.0261
787.151	40.0002
790.043	40.5087
792.936	47.8231
795.829	43.6212
798.722	40.7614
801.614	43.3403
804.507	39.8316
807.4	43.2195
810.292	43.0039
813.185	44.03
816.078	39.9987
818.971	41.4694
821.863	40.7169
824.756	37.1658
827.649	41.5696
830.541	35.6539
833.434	31.8121
836.327	35.7051
839.219	27.4442
842.112	28.3592
845.005	25.5862
847.898	24.0387
850.79	21.6445
853.683	21.3166
856.576	20.0008
859.468	18.4219
862.361	14.7313
865.254	11.1716
868.146	10.2303
871.039	5.14294
873.932	1.92395
876.824	7.71228
879.717	2.88104
882.61	0.801025
885.503	3.04657
888.395	3.54993
891.288	1.58081
894.181	1.07727
897.073	0.972107
899.966	0.614624
902.859	8.55365
905.751	0.674805
908.644	2.79944
911.537	4.01361
914.43	2.16217
917.322	5.55164
920.215	2.25369
923.108	1.03671
926	5.35187
928.893	0.35321
931.786	2.10074
934.678	10.6131
937.571	0.303101
940.464	4.06241
943.357	9.88586
946.249	7.18927
949.142	4.07047
952.035	7.44589
954.927	5.03613
957.82	3.77389
960.713	8.57391
963.606	6.70236
966.498	7.51346
969.391	9.65048
972.284	13.8283
975.176	10.6299
978.069	11.8649
980.962	14.2106
983.854	9.28445
986.747	5.78763
989.64	7.06909
992.533	7.69156
995.425	4.5466
998.318	9.8313
1001.21	4.77637
1004.1	6.16455
1007	10.8254
1009.89	7.02408
1012.78	2.19861
1015.67	12.0481
1018.57	11.0161
1021.46	10.9433
1024.35	14.5114
1027.24	3.68988
1030.14	8.85068
1033.03	14.0484
1035.92	7.05386
1038.82	3.48126
1041.71	3.98303
1044.6	0.869781
1047.49	7.54556
1050.39	0.817505
1053.28	1.90006
1056.17	3.61194
1059.07	2.41818
1061.96	3.93167
1064.85	1.92963
1067.74	2.85327
1070.63	2.45602
1073.53	3.91208
1076.42	3.79806
1079.31	1.36533
1082.21	6.34753
1085.1	2.25369
1087.99	0.742065
1090.88	11.4332
1093.78	1.70019
1096.67	10.3452
1099.56	9.43991
1102.45	4.76678
1105.35	4.66107
1108.24	3.78903
1111.13	6.76083
1114.03	8.25864
1116.92	9.496
1119.81	11.4163
1122.7	8.99371
1125.6	3.05667
1128.49	3.80713
1131.38	4.19388
1134.28	9.91049
1137.17	2.74731
1140.06	3.86166
1142.95	0.776276
1145.85	4.55588
1148.74	3.38257
1151.63	5.88474
1154.52	9.68936
1157.42	5.40543
1160.31	6.37479
1163.2	1.4408
1166.09	8.93192
1168.99	7.86707
1171.88	5.80832
1174.77	3.76382
1177.66	6.22964
1180.56	5.39938
1183.45	1.06134
1186.34	5.12036
1189.24	3.22073
1192.13	4.99085
1195.02	1.41583
1197.91	5.10391
1200.81	0.117798
1203.7	5.50034
1206.59	2.11758
1209.48	8.09195
1212.38	6.48996
1215.27	2.09555
1218.16	10.2784
1221.06	3.18848
1223.95	6.54324
1226.84	2.10272
1229.73	5.32208
1232.63	1.47275
1235.52	6.03281
1238.41	4.14224
1241.31	1.20596
1244.2	9.93301
1247.09	5.55444
1249.98	8.21973
1252.88	9.3631
1255.77	6.00809
1258.66	2.54498
1261.55	6.72769
1264.45	7.49039
1267.34	3.24112
1270.23	8.00534
1273.12	2.18057
1276.02	0.033142
1278.91	2.42297
1281.8	0.887238
1284.69	5.82587
1287.59	5.33551
1290.48	1.24191
1293.37	6.99802
1296.27	9.74054
1299.16	8.62167
1302.05	0.062378
