Measurement: Raman, 780 nm, unoriented, Raman Data Processed
Mineral: Perovskite
Rruff sample: R050456
Ideal chemistry: CaTi^4+^O_3_
Locality: Magnet Cove, Arkansas, USA
Source: University of Arizona Mineral Museum
Description: Groups of black cubo-octahedral crystals
Measured chemistry: darker phase: (Ca_0.82_Fe^2+^_0.09_Na_0.07_Ce_0.01_La_0.01_)_Σ=1_(Ti_0.95_Nb^5+^_0.05_)_Σ=1_O_3_ ; gray phase: (Ca_0.89_Fe^2+^_0.05_Na_0.04_Ce_0.01_La_0.01_)_Σ=1_(Ti_0.98_Nb^5+^_0.02_)_Σ=1_O_3_
Raman shift (cm-1)	intensity
163.208	0
166.101	0.622581
168.994	2.089
171.886	3.36395
174.779	5.52575
177.672	5.70843
180.564	5.00805
183.457	3.88134
186.35	2.92022
189.242	0.60408
192.135	0.337257
195.028	0.200645
197.921	0.472778
200.813	0.368187
203.706	0.487061
206.599	1.51058
209.491	1.80072
212.384	2.82275
215.277	4.88799
218.169	5.7725
221.062	7.40135
223.955	8.01057
226.847	9.43684
229.74	9.95837
232.633	12.9886
235.526	14.8925
238.418	18.6044
241.311	19.4273
244.204	17.334
247.096	13.3973
249.989	8.67795
252.882	5.52229
255.774	1.59756
258.667	1.17099
261.56	0.579514
264.453	0.412537
267.345	0.059967
270.238	0.790329
273.131	1.51785
276.023	3.06393
278.916	2.89999
281.809	3.56651
284.702	4.28371
287.594	3.25798
290.487	2.53633
293.38	2.21433
296.272	1.26865
299.165	1.7515
302.058	1.5901
304.95	0.725075
307.843	1.34937
310.736	1.10486
313.628	1.17627
316.521	1.14591
319.414	2.00179
322.307	1.1303
325.199	2.07864
328.092	3.61725
330.985	4.11636
333.877	4.28493
336.77	3.66778
339.663	4.51002
342.556	3.88022
345.448	4.30771
348.341	3.61416
351.234	3.82511
354.126	3.2182
357.019	3.35978
359.912	3.63669
362.805	3.71372
365.697	3.76164
368.59	3.79282
371.483	4.19367
374.375	3.70327
377.268	2.93498
380.161	2.72653
383.053	2.23527
385.946	2.5545
388.839	2.66723
391.731	2.29092
394.624	1.62991
397.517	1.23035
400.41	0.571686
403.302	1.05705
406.195	1.34786
409.088	0.164505
411.98	0.697018
414.873	0.10368
417.766	0.329075
420.659	0.127766
423.551	0.105877
426.444	0.514248
429.337	0.242691
432.229	0.741062
435.122	0.339718
438.015	0.908638
440.907	0.213844
443.8	1.26744
446.693	2.44944
449.586	3.78582
452.478	5.68555
455.371	7.46505
458.264	8.74241
461.156	10.4688
464.049	11.3252
466.942	11.1597
469.834	9.20229
472.727	6.15136
475.62	5.96162
478.513	6.37776
481.405	6.00622
484.298	6.88747
487.191	5.86812
490.083	6.16145
492.976	5.79587
495.869	6.66851
498.762	5.8735
501.654	6.93593
504.547	6.65407
507.44	6.60718
510.332	6.69877
513.225	7.12579
516.118	6.52175
519.01	6.33736
521.903	6.66397
524.796	6.36737
527.688	5.51874
530.581	4.49007
533.474	4.19086
536.367	3.51953
539.259	3.45596
542.152	2.89223
545.045	2.46077
547.937	2.1708
550.83	2.35356
553.723	1.64975
556.615	1.97546
559.508	1.33552
562.401	1.54923
565.294	1.31944
568.186	1.67226
571.079	1.01541
573.972	1.25031
576.864	0.600437
579.757	0.324886
582.65	0.459156
585.543	0.048351
588.435	0.064869
591.328	0.399742
594.221	0.048347
597.113	0.35812
600.006	0.147362
602.899	0.276726
605.791	0.038219
608.684	0.222683
611.577	0.430283
614.47	0.853931
617.362	0.673271
620.255	1.21927
623.148	1.48713
626.04	1.98157
628.933	1.81821
631.826	2.26227
634.718	2.28542
637.611	2.34832
640.504	2.39757
643.397	2.09643
646.289	2.39589
649.182	2.05107
652.075	1.27763
654.967	1.28815
657.86	1.46301
660.753	1.35661
663.645	0.613888
666.538	0.884766
669.431	0.35247
672.324	0.798489
675.216	0.106518
678.109	0.099937
681.002	0.201214
683.894	0.898396
686.787	0.300922
689.68	0.796124
692.572	0.072994
695.465	0.178375
698.358	0.447811
701.251	0.133011
704.143	0.635319
707.036	0.963989
709.929	0.934807
712.821	1.2238
715.714	1.52368
718.607	1.92976
721.5	2.52834
724.392	2.66093
727.285	3.05347
730.178	4.15421
733.07	5.29687
735.963	6.25663
738.856	7.23748
741.749	8.4283
744.641	10.5758
747.534	12.5601
750.427	14.4623
753.319	17.3349
756.212	19.6079
759.105	21.2487
761.997	23.1686
764.89	24.9128
767.783	27.9629
770.676	27.0578
773.568	26.9759
776.461	26.81
779.354	27.0959
782.246	26.4028
785.139	25.9578
788.032	24.3536
790.924	23.0264
793.817	21.2644
796.71	19.73
799.602	17.8233
802.495	15.1785
805.388	13.6799
808.281	11.8979
811.173	10.7066
814.066	9.20943
816.959	7.40762
819.851	6.5315
822.744	6.08053
825.637	5.85462
828.529	4.97286
831.422	4.61877
834.315	4.09867
837.208	4.10158
840.1	3.24697
842.993	2.41877
845.886	1.80974
848.778	1.55055
851.671	1.53096
854.564	0.588837
857.457	0.207733
860.349	0.278528
863.242	0.090755
866.135	0.114983
869.027	0.271841
871.92	0.141209
874.813	0.43331
877.705	0.460112
880.598	0.494984
883.491	0.038298
886.384	0.114706
889.276	0.241776
892.169	0.046894
895.062	0.344948
897.954	0.061308
900.847	0.043324
903.74	0.454103
906.632	0.300131
909.525	0.904133
912.418	0.920704
915.311	0.76544
918.203	0.777491
921.096	0.805845
923.989	0.901613
926.881	0.731524
929.774	0.85531
932.667	1.17828
935.559	1.26375
938.452	1.33341
941.345	0.375315
944.238	1.2487
947.13	1.14818
950.023	0.583656
952.916	1.05126
955.808	0.804941
958.701	0.827391
961.594	0.618416
964.486	0.65214
967.379	0.473181
970.272	0.613796
973.165	0.694826
976.057	0.751955
978.95	0.763449
981.843	0.830376
984.735	0.905874
987.628	0.87336
990.521	0.566168
993.413	0.569714
996.306	0.78739
999.199	0.959641
1002.09	0.606503
1004.98	0.742987
1007.88	0.842861
1010.77	0.845081
1013.66	0.865816
1016.55	0.387449
1019.45	0.521864
1022.34	0.541996
1025.23	0.455402
1028.13	0.334925
1031.02	0.449656
1033.91	0.352505
1036.8	0.547977
1039.7	0.697145
1042.59	0.150379
1045.48	0.357838
1048.38	0.298122
1051.27	0.328512
1054.16	0.416094
1057.05	0.522259
1059.95	0.569176
1062.84	0.408234
1065.73	0.375633
1068.62	0.131848
1071.52	0.073565
1074.41	0.373768
1077.3	0.008873
1080.19	0.164764
1083.09	0.251106
1085.98	0.186101
1088.87	0.180689
1091.77	0.206934
1094.66	0.030331
1097.55	0.07605
1100.44	0.190114
1103.34	0.163553
1106.23	0.394563
1109.12	0.195744
1112.01	0.350591
1114.91	0.554014
1117.8	0.036133
1120.69	0.220914
1123.59	0.371606
1126.48	0.118442
1129.37	0.079597
1132.26	0.471342
1135.16	0.412148
1138.05	0.471915
1140.94	0.835134
1143.83	0.40359
1146.73	0.786492
1149.62	0.805529
1152.51	0.34863
1155.4	0.957743
1158.3	1.19853
1161.19	1.12128
1164.08	0.870365
1166.98	1.27445
1169.87	1.34846
1172.76	1.42352
1175.65	1.85246
1178.55	1.42958
1181.44	2.21328
1184.33	1.832
1187.22	2.14978
1190.12	1.93584
1193.01	2.06197
1195.9	2.0788
1198.8	2.16556
1201.69	2.57581
1204.58	2.23821
1207.47	1.86021
1210.37	2.27327
1213.26	1.82563
1216.15	1.84245
1219.04	1.27489
1221.94	1.50829
1224.83	1.13892
1227.72	0.753229
1230.62	0.026924
1233.51	0.206867
1236.4	0.377392
1239.29	0.068253
1242.19	0.180313
1245.08	0.367781
1247.97	0.453556
1250.86	0.222847
1253.76	0.423796
1256.65	0.722769
1259.54	1.00638
1262.43	0.424595
1265.33	0.498281
1268.22	0.083525
1271.11	0.832636
1274.01	0.463076
1276.9	0.481977
1279.79	0.923298
1282.68	0.787994
1285.58	0.26635
