Measurement: Raman, 514 nm, unoriented, Raman Data Processed
Mineral: Perovskite
Rruff sample: R050456
Ideal chemistry: CaTi^4+^O_3_
Locality: Magnet Cove, Arkansas, USA
Source: University of Arizona Mineral Museum
Description: Groups of black cubo-octahedral crystals
Measured chemistry: darker phase: (Ca_0.82_Fe^2+^_0.09_Na_0.07_Ce_0.01_La_0.01_)_Σ=1_(Ti_0.95_Nb^5+^_0.05_)_Σ=1_O_3_ ; gray phase: (Ca_0.89_Fe^2+^_0.05_Na_0.04_Ce_0.01_La_0.01_)_Σ=1_(Ti_0.98_Nb^5+^_0.02_)_Σ=1_O_3_
Raman shift (cm-1)	intensity
139.243	0
143.401	14.449
147.557	1180.85
151.711	1780.86
155.863	1861.22
160.013	1675.26
164.161	1501.36
168.308	2355.08
172.452	3836.12
176.594	4954.35
180.734	4565.3
184.872	2597.4
189.008	565.023
193.143	64.75
197.275	312.938
201.405	381.637
205.534	208.906
209.66	777.578
213.784	1933.39
217.907	3556.02
222.027	3987.02
226.146	4080.68
230.263	3204.2
234.377	3527.89
238.49	4938.99
242.601	7268.77
246.709	7107.27
250.816	4269.18
254.921	1822.89
259.024	1113.99
263.125	962.492
267.224	821.355
271.321	2735.53
275.416	4547.99
279.51	6371.66
283.601	8070.16
287.69	7958.55
291.778	7539.53
295.863	7025.77
299.947	7568.54
304.029	7175.15
308.108	7596.66
312.186	7534.37
316.262	8105.49
320.336	8089.94
324.408	9752.25
328.478	10134.8
332.546	11671.1
336.612	11853.1
340.677	11852.4
344.739	11307.7
348.799	10481.9
352.858	10355.4
356.915	9427.03
360.969	9190.97
365.022	9039.43
369.073	8667.23
373.122	7837.88
377.169	7608.31
381.215	7497.12
385.258	7140.23
389.299	6625.59
393.339	6349.13
397.376	6660.82
401.412	5562.62
405.446	5571.5
409.478	4459.45
413.508	3507.45
417.536	3149.52
421.562	2989.23
425.586	2350.18
429.609	1845.17
433.629	2357.62
437.648	1074.07
441.665	1188.25
445.68	1818.14
449.693	2123.36
453.704	3321
457.713	3550.48
461.721	5109.7
465.726	5495.22
469.73	5764.06
473.731	5524.27
477.731	4798.82
481.729	5593.75
485.725	6592.08
489.72	6947.83
493.712	7252.02
497.703	6535.74
501.691	6876.02
505.678	7412.81
509.663	7140.1
513.646	7095.86
517.627	7871.19
521.607	8001.64
525.584	7556.38
529.56	6985.95
533.534	6286.97
537.506	6586.29
541.476	5773.89
545.444	5283.75
549.41	4385.84
553.375	3786.13
557.337	3576.61
561.298	2081.25
565.257	1754.03
569.214	1254.91
573.17	413.893
577.123	220.941
581.075	269.838
585.024	596.961
588.972	513.76
592.918	996.539
596.863	442.164
600.805	334.648
604.746	508.857
608.685	94.465
612.621	99.74
616.557	804.018
620.49	954.08
624.421	1208.52
628.351	2077.45
632.279	2342.61
636.205	2067.88
640.129	2879.57
644.051	2957.37
647.972	3045.43
651.89	2898.84
655.807	3561.31
659.722	3343.75
663.636	3544.06
667.547	3165.23
671.457	2967.19
675.365	3126.9
679.271	2770.33
683.175	3211.43
687.077	2901.18
690.978	3322.53
694.877	3083.45
698.774	2975.92
702.669	3235.9
706.562	3323.39
710.454	3348.38
714.344	3507.83
718.232	3571.75
722.118	4390.12
726.002	4609.92
729.885	5881.14
733.766	6135.87
737.645	7275.9
741.522	7918.79
745.397	9541.57
749.271	10527.2
753.143	11589.7
757.013	13441.9
760.881	14917.9
764.748	16564.8
768.613	18422.3
772.476	19848.4
776.337	21803.3
780.196	23210.1
784.054	24255.9
787.91	24797.6
791.764	25370
795.616	25713.8
799.467	23966.2
803.316	22723.6
807.163	21738.5
811.008	19149.7
814.851	17483
818.693	15818.5
822.533	14552.6
826.371	13555
830.208	12649.1
834.042	11520.6
837.875	11316.8
841.706	10071.9
845.536	8675.55
849.363	7217.13
853.189	5925.72
857.013	5062.05
860.836	4057.52
864.656	3217.13
868.475	2567.87
872.292	2163.74
876.108	1509.73
879.922	1256.83
883.733	1027.1
887.544	665.502
891.352	528.137
895.159	536.406
898.964	407.736
902.767	138.135
906.568	187.689
910.368	74.674
914.166	28.361
917.962	111.793
921.757	78.805
925.55	67.609
929.341	229.299
933.13	257.227
936.918	516.451
940.703	187.393
944.488	224.271
948.27	22.607
952.051	105.258
955.83	94.918
959.607	0.086
963.383	63.816
967.156	131.562
970.928	152.832
974.699	363.459
978.468	401.26
982.234	528.943
986	671.951
989.763	765.211
993.525	701.582
997.285	998.113
1001.04	1186.19
1004.8	1084.81
1008.55	1076.39
1012.31	1406.84
1016.06	1307.43
1019.81	1342.34
1023.56	1601.88
1027.31	1575.08
1031.05	1853.01
1034.79	1886.86
1038.53	1813.44
1042.27	2060.27
1046.01	1968.17
1049.75	1939.28
1053.48	1859.67
1057.22	1908.85
1060.95	1538.3
1064.68	1648.16
1068.4	1706.49
1072.13	1683.12
1075.86	1447.73
1079.58	1491.62
1083.3	1254.9
1087.02	1145.38
1090.74	1068.63
1094.45	940.971
1098.17	856.232
1101.88	833.338
1105.59	656.863
1109.3	500.987
1113.01	362.115
1116.71	507.585
1120.42	318.403
1124.12	578.674
1127.82	379.903
1131.52	351.972
1135.22	454.479
1138.91	423.35
1142.61	123.14
1146.3	289.623
1149.99	298.237
1153.68	176.797
1157.37	223.348
1161.06	234.429
1164.74	116.518
1168.42	162.975
1172.1	0.137
1175.78	116.637
1179.46	6.284
1183.14	29.45
1186.81	29.187
1190.48	34.072
1194.15	64.832
1197.83	112.618
1201.49	7.519
1205.16	26.242
1208.82	5.824
1212.49	0.821
1216.15	17.973
1219.81	58.075
1223.46	102.615
1227.12	40.186
1230.78	46.983
1234.43	165.441
1238.08	137.896
1241.73	129.953
1245.38	149.147
1249.03	45.689
1252.67	124.833
1256.31	189.514
1259.95	210.579
1263.6	247.296
1267.23	419.77
1270.87	207.448
1274.51	397.211
1278.14	271.365
1281.77	359.457
1285.4	394.028
1289.03	693.589
1292.66	461.023
1296.28	334.914
1299.91	408.271
1303.53	297.381
1307.15	373.724
1310.77	449.475
1314.38	229.498
1318	308.476
1321.61	322.196
1325.23	282.754
1328.84	127.376
1332.45	260.712
1336.06	192.142
1339.66	140.903
1343.27	223.919
1346.87	70.342
1350.47	155.206
1354.07	248.095
1357.67	231.783
1361.26	128.968
1364.86	63.933
1368.45	204.223
1372.04	118.524
1375.63	123.288
1379.22	14.414
1382.81	1.394
1386.39	41.8
1389.98	133.63
1393.56	139.726
1397.14	85.497
1400.72	37.734
1404.3	94.425
1407.87	11.594
1411.45	81.604
1415.02	89.201
1418.59	4.998
1422.16	126.884
1425.73	78.655
1429.29	0.46
1432.86	116.13
1436.42	133.278
1439.98	180.88
1443.54	61.236
1447.1	99.12
1450.66	51.338
1454.21	110.048
1457.77	41.729
1461.32	115.81
1464.87	8.134
1468.42	0
