Measurement: Raman, 780 nm, unoriented, Raman Data Processed
Mineral: Petersite-(Ce)
Rruff sample: R050541
Ideal chemistry: Cu^2+^_6_Ce^3+^(PO_4_)_3_(OH)_6_3H_2_O
Locality: Cherry Creek district, Yavapai County, Arizona, USA
Source: UAMM
Description: Spray of yellowish-green acicular crystals, type sample
Measured chemistry: Cu_6.03_(Ce_0.18_Y_0.16_La_0.12_Nd_0.09_Gd_0.03_Pr_0.02_Sm_0.01_Dy_0.01_Ca_0.42_)_Σ=1.05_[(PO_4_)_0.95_(SiO_4_)_0.05_]_3_(OH)_6_·3.21H_2_O
Raman shift (cm-1)	intensity
92.5678	0
95.9426	14.9866
99.3174	8.08235
102.692	0.673279
106.067	6.39803
109.442	15.5197
112.817	25.8759
116.192	41.3602
119.566	45.3848
122.941	30.1125
126.316	15.7856
129.691	8.57803
133.066	4.5013
136.44	5.55602
139.815	1.5686
143.19	0.813004
146.565	0.701691
149.94	1.09479
153.315	3.28424
156.689	6.86813
160.064	6.86662
163.439	12.7235
166.814	12.7562
170.189	15.8612
173.563	17.0837
176.938	13.9382
180.313	15.8716
183.688	10.3217
187.063	9.90179
190.437	13.8203
193.812	13.3776
197.187	14.3282
200.562	11.2559
203.937	13.6684
207.311	12.0688
210.686	10.8163
214.061	7.14774
217.436	8.6579
220.811	6.78575
224.186	3.94026
227.56	4.55684
230.935	7.25913
234.31	2.45076
237.685	5.20142
241.06	2.19508
244.435	5.09119
247.809	8.11273
251.184	6.72177
254.559	5.61826
257.934	6.5237
261.309	2.00153
264.683	1.01747
268.058	3.23244
271.433	4.29506
274.808	3.17378
278.183	4.97205
281.558	4.33296
284.932	2.67584
288.307	4.2016
291.682	3.93051
295.057	4.27022
298.432	5.05054
301.806	1.87544
305.181	5.95853
308.556	0.758911
311.931	4.25693
315.306	3.04627
318.68	0.976868
322.055	1.22247
325.43	1.36743
328.805	2.45087
332.18	1.26375
335.555	1.17129
338.929	1.72052
342.304	1.30244
345.679	0.683197
349.054	0.682007
352.429	0.045822
355.803	0.591553
359.178	0.572906
362.553	1.24347
365.928	1.16472
369.303	0.408539
372.678	2.01526
376.052	3.11911
379.427	2.51271
382.802	0.19458
386.177	3.68253
389.552	6.69864
392.926	9.60258
396.301	6.41576
399.676	3.73291
403.051	4.89992
406.426	4.20709
409.8	4.48625
413.175	0.67012
416.55	4.32959
419.925	3.05615
423.3	2.77097
426.675	0.407211
430.049	0.12149
433.424	4.00479
436.799	0.996964
440.174	7.01085
443.549	1.56349
446.923	7.02037
450.298	5.84534
453.673	6.49431
457.048	10.2624
460.423	13.3621
463.798	16.4345
467.172	22.0413
470.547	25.7085
473.922	29.3086
477.297	26.7965
480.672	19.9511
484.046	17.3699
487.421	5.96846
490.796	6.49585
494.171	7.26436
497.546	1.81306
500.921	4.16356
504.295	2.67293
507.67	2.16469
511.045	3.37552
514.42	3.71785
517.795	0.699371
521.169	2.11649
524.544	3.14945
527.919	3.29648
531.294	1.45402
534.669	0.476425
538.044	3.62457
541.418	0.215805
544.793	1.63071
548.168	0.61441
551.543	3.66977
554.918	2.7777
558.293	5.64325
561.667	5.24274
565.042	6.52646
568.417	7.66524
571.792	10.5925
575.167	19.2523
578.541	22.2418
581.916	13.5088
585.291	7.62146
588.666	7.42354
592.041	10.2877
595.415	8.13194
598.79	4.87709
602.165	5.95158
605.54	3.03333
608.915	3.4997
612.29	1.96642
615.664	1.75528
619.039	4.30003
622.414	3.82362
625.789	4.25876
629.164	3.83785
632.538	2.22607
635.913	4.57436
639.288	5.12972
642.663	3.03542
646.038	2.42293
649.413	0.921539
652.787	0.24939
656.162	4.05513
659.537	2.27119
662.912	0.46814
666.287	3.32672
669.661	2.48524
673.036	1.05994
676.411	1.03847
679.786	2.05144
683.161	4.42252
686.535	1.67864
689.91	4.18378
693.285	2.34898
696.66	1.8092
700.035	0.644577
703.41	0.845825
706.784	4.45276
710.159	4.95181
713.534	0.546051
716.909	0.853348
720.284	3.85175
723.659	0.41687
727.033	5.71483
730.408	4.89658
733.783	5.27473
737.158	4.83209
740.533	1.01985
743.907	5.02556
747.282	0.190903
750.657	1.08665
754.032	5.76492
757.407	0.851151
760.782	0.109299
764.156	3.51379
767.531	3.32965
770.906	2.16774
774.281	3.43533
777.656	3.64017
781.03	4.44823
784.405	6.08243
787.78	1.49918
791.155	3.63545
794.53	1.22932
797.904	0.873917
801.279	3.46675
804.654	3.80562
808.029	5.09451
811.404	5.86407
814.779	4.08608
818.153	4.91196
821.528	7.66328
824.903	4.92946
828.278	5.92748
831.653	7.35858
835.028	3.08533
838.402	4.52939
841.777	1.03125
845.152	2.08368
848.527	5.14151
851.902	2.40877
855.276	4.15996
858.651	4.45511
862.026	3.50914
865.401	0.089081
868.776	3.10309
872.15	4.08128
875.525	3.06784
878.9	0.424286
882.275	2.07471
885.65	4.22563
889.024	0.782745
892.399	0.416901
895.774	0.891861
899.149	2.23166
902.524	4.61104
905.899	1.8147
909.273	3.10467
912.648	2.60232
916.023	0.032898
919.398	7.23711
922.773	6.60576
926.148	6.80249
929.522	6.59218
932.897	8.81744
936.272	6.6059
939.647	11.3181
943.022	10.893
946.396	14.7044
949.771	10.2504
953.146	13.8251
956.521	10.0451
959.896	10.6391
963.27	6.90497
966.645	3.95631
970.02	3.01366
973.395	5.83021
976.77	2.52794
980.145	1.81178
983.519	2.98375
986.894	0.209564
990.269	0.008255
993.644	0.129135
997.019	1.23419
1000.39	3.0238
1003.77	3.12759
1007.14	2.01958
1010.52	2.55174
1013.89	0.231934
1017.27	1.63046
1020.64	1.1577
1024.02	2.23592
1027.39	5.98177
1030.77	4.55199
1034.14	3.78143
1037.52	10.6907
1040.89	15.3321
1044.27	18.2155
1047.64	16.8692
1051.02	3.25272
1054.39	2.51659
1057.77	7.93272
1061.14	3.65582
1064.52	3.49348
1067.89	3.78188
1071.27	5.58183
1074.64	0.707489
1078.01	7.42483
1081.39	6.41301
1084.76	5.30498
1088.14	10.4979
1091.51	8.12788
1094.89	7.6499
1098.26	8.54983
1101.64	4.46802
1105.01	6.6478
1108.39	6.56197
1111.76	8.59994
1115.14	1.45735
1118.51	6.35561
1121.89	5.89113
1125.26	5.42462
1128.64	7.08551
1132.01	4.6533
1135.39	1.39026
1138.76	3.79071
1142.14	0.55896
1145.51	0.019043
1148.88	4.5188
1152.26	5.95981
1155.63	3.25775
1159.01	3.96179
1162.38	4.26291
1165.76	5.54753
1169.13	4.7329
1172.51	5.69716
1175.88	4.53568
1179.26	3.07077
1182.63	3.89729
1186.01	3.52954
1189.38	6.55995
1192.76	8.95145
1196.13	2.25134
1199.51	0.204803
1202.88	3.29848
1206.26	1.1651
1209.63	1.28774
1213.01	3.24013
1216.38	0.135605
1219.76	6.15112
1223.13	7.65854
1226.51	9.1163
1229.88	5.22527
1233.26	0.340973
1236.63	2.18738
1240.01	6.11412
1243.38	5.65294
1246.76	1.91817
1250.13	3.94076
1253.51	4.51436
1256.88	0.895111
1260.25	4.42096
1263.63	0.280518
1267	5.24239
1270.38	6.80675
1273.75	3.94803
1277.13	8.15434
1280.5	0.269638
1283.88	4.83617
