Measurement: Raman, 532 nm, unoriented, Raman Data Processed
Mineral: Petersite-(Y)
Rruff sample: R060538
Ideal chemistry: Cu^2+^_6_Y(PO_4_)_3_(OH)_6_3H_2_O
Locality: Laurel Hill, Secaucus, New Jersey, USA
Source: Michael Scott
Description: Divergent sprays of pale green fibers
Raman shift (cm-1)	intensity
155.27	0
158.163	5.546
161.056	61.103
163.948	288.557
166.841	375.808
169.734	494.097
172.626	534.278
175.519	638.919
178.412	694.133
181.305	569.481
184.197	603.914
187.09	653.555
189.983	591.376
192.875	615.396
195.768	617.838
198.661	719.458
201.553	680.462
204.446	850.98
207.339	960.885
210.232	987.207
213.124	767.827
216.017	688.062
218.91	578.609
221.802	451.466
224.695	202.121
227.588	44.407
230.48	32.716
233.373	40.634
236.266	19.981
239.159	25.027
242.051	59.542
244.944	89.871
247.837	231.298
250.729	306.744
253.622	309.678
256.515	175.593
259.408	205.45
262.3	198.757
265.193	258.024
268.086	211.331
270.978	240.502
273.871	129.449
276.764	102.418
279.656	169.217
282.549	170.528
285.442	255.656
288.335	214.689
291.227	264.586
294.12	196.024
297.013	135.02
299.905	62.24
302.798	81.004
305.691	227.602
308.583	125.263
311.476	109.782
314.369	88.975
317.262	163.197
320.154	84.83
323.047	8.11
325.94	42.073
328.832	33.379
331.725	110.198
334.618	101.048
337.51	65.543
340.403	14.738
343.296	94.222
346.189	181.293
349.081	63.381
351.974	118.673
354.867	39.912
357.759	53.465
360.652	14.391
363.545	19.416
366.437	10.741
369.33	85.429
372.223	39.263
375.116	60.153
378.008	98.368
380.901	241.586
383.794	210.817
386.686	374.787
389.579	412.565
392.472	567.058
395.364	679.414
398.257	606.693
401.15	490.376
404.043	281.212
406.935	249.533
409.828	186.801
412.721	238.175
415.613	93.501
418.506	195.298
421.399	201.555
424.291	141.41
427.184	84.791
430.077	2.987
432.97	51.014
435.862	113.568
438.755	44.876
441.648	90.027
444.54	176.452
447.433	207.728
450.326	323.186
453.218	451.903
456.111	612.012
459.004	850.091
461.897	1127.22
464.789	1616.32
467.682	2198.22
470.575	2646.24
473.467	2722.56
476.36	2638.04
479.253	2219.75
482.146	1610.13
485.038	1222.09
487.931	803.717
490.824	599.216
493.716	356.729
496.609	146.308
499.502	98.902
502.394	12.011
505.287	87.532
508.18	99.161
511.073	148.315
513.965	195.897
516.858	172.075
519.751	224.791
522.643	293.035
525.536	269.498
528.429	199.449
531.321	81.556
534.214	67.868
537.107	39.535
540	26.44
542.892	42.799
545.785	12.624
548.678	63.516
551.57	81.752
554.463	173.223
557.356	307.678
560.248	408.874
563.141	659.812
566.034	863.176
568.927	1412.15
571.819	1849.04
574.712	2340.89
577.605	2589.68
580.497	2100.13
583.39	1255.95
586.283	961.104
589.175	642.117
592.068	481.973
594.961	381.654
597.854	325.268
600.746	285.889
603.639	169.821
606.532	66.227
609.424	131.392
612.317	148.198
615.21	170.401
618.102	129.447
620.995	21.948
623.888	85.749
626.781	97.963
629.673	176.553
632.566	76.918
635.459	26.013
638.351	92.437
641.244	14.892
644.137	100.287
647.029	42.203
649.922	64.043
652.815	39.07
655.708	85.591
658.6	149.766
661.493	266.087
664.386	152.568
667.278	183.164
670.171	188.164
673.064	279.244
675.956	273.315
678.849	216.532
681.742	154.025
684.635	76.652
687.527	59.883
690.42	104.816
693.313	190.322
696.205	60.407
699.098	77.869
701.991	7.857
704.883	103.023
707.776	57.231
710.669	8.121
713.562	102.882
716.454	141.155
719.347	154.042
722.24	165.271
725.132	245.233
728.025	183.715
730.918	143.936
733.81	77.213
736.703	157.23
739.596	48.901
742.489	44.895
745.381	190.838
748.274	130.13
751.167	171.706
754.059	176.68
756.952	93.494
759.845	70.861
762.737	14.773
765.63	23.782
768.523	122.364
771.416	73.94
774.308	4.208
777.201	18.072
780.094	102.926
782.986	24.731
785.879	2.474
788.772	28.41
791.664	147.951
794.557	167.825
797.45	106.568
800.343	63.069
803.235	122.481
806.128	113.061
809.021	83.396
811.913	110.881
814.806	86.601
817.699	113.418
820.591	94.788
823.484	60.698
826.377	150.387
829.27	17.86
832.162	84.566
835.055	23.422
837.948	32.107
840.841	18.021
843.733	76.106
846.626	79.228
849.519	113.764
852.411	180.128
855.304	148.22
858.197	185.619
861.089	198.336
863.982	194.723
866.875	396.053
869.768	437.435
872.66	375.335
875.553	458.984
878.446	352.972
881.338	294.944
884.231	241.906
887.124	222.449
890.016	186.113
892.909	153.837
895.802	245.187
898.695	143.104
901.587	10.568
904.48	5.844
907.373	89.321
910.265	40.013
913.158	4.87
916.051	63.637
918.943	10.3
921.836	57.984
924.729	130.867
927.622	210.326
930.514	305.843
933.407	338.965
936.3	396.619
939.192	532.107
942.085	563.238
944.978	781.92
947.87	793.171
950.763	656.165
953.656	673.747
956.549	541.074
959.441	404.941
962.334	335.493
965.227	227.305
968.119	182.897
971.012	210.354
973.905	150.784
976.797	68.096
979.69	121.649
982.583	112.575
985.476	69.736
988.368	36.329
991.261	51.623
994.154	3.62
997.046	71.351
999.939	30.229
1002.83	64.085
1005.72	11.578
1008.62	37.687
1011.51	8.703
1014.4	15.14
1017.29	74.624
1020.19	80.751
1023.08	181.361
1025.97	329.555
1028.87	464.513
1031.76	600.156
1034.65	958.731
1037.54	1316.85
1040.44	1711.38
1043.33	1904.99
1046.22	1890.61
1049.12	1548.95
1052.01	1103.4
1054.9	916.145
1057.79	600.353
1060.69	508.836
1063.58	351.659
1066.47	364.045
1069.36	367.264
1072.26	378.214
1075.15	638.49
1078.04	630.62
1080.93	546.604
1083.83	529.511
1086.72	513.393
1089.61	398.983
1092.51	181.612
1095.4	284.896
1098.29	248.298
1101.18	317.993
1104.08	322.909
1106.97	360.92
1109.86	257.278
1112.75	233.58
1115.65	227.488
1118.54	76.98
1121.43	45.153
1124.33	0.625
1127.22	95.944
1130.11	109.9
1133	106.893
1135.9	86.5
1138.79	63.759
1141.68	38.501
1144.57	73.534
1147.47	6.676
1150.36	56.005
1153.25	128.399
1156.14	60.171
1159.04	37.484
1161.93	130.861
1164.82	21.349
1167.72	46.232
1170.61	20.09
1173.5	47.634
1176.39	30.977
1179.29	87.035
1182.18	43.089
1185.07	149.993
1187.96	1.885
1190.86	124.043
1193.75	72.24
1196.64	112.576
1199.54	145.451
1202.43	67.16
1205.32	79.072
1208.21	58.022
1211.11	36.624
1214	88.111
1216.89	65.298
1219.78	97.904
1222.68	175.313
1225.57	79.902
1228.46	65.543
1231.36	94.248
1234.25	197.196
1237.14	115.43
1240.03	151.86
1242.93	204.338
1245.82	96.098
1248.71	52.392
1251.6	161.459
1254.5	45.645
1257.39	141.519
1260.28	136.984
1263.17	24.321
1266.07	63.935
1268.96	32.778
1271.85	150.32
1274.75	134.521
1277.64	198.496
1280.53	114.534
1283.42	76.038
1286.32	127.648
1289.21	85.425
1292.1	71.141
1294.99	13.659
1297.89	49.539
1300.78	0
