Measurement: Raman, 532 nm, unoriented, Raman Data Processed
Mineral: Petedunnite
Rruff sample: R070207
Ideal chemistry: CaZn^2+^Si_2_O_6_
Locality: Franklin, New Jersey, USA
Source: William W. Pinch
Description: Dark green fine-grained massive
Measured chemistry: (Ca_0.94_Mn_0.06_)_Σ=1_(Zn_0.33_Fe^2+^_0.29_Mg_0.21_Mn_0.15_Fe^3+^_0.02_)_Σ=1_(Si_1.98_Al_0.02_)_Σ=2_O_6_ ; = gray phase
Raman shift (cm-1)	intensity
152.11	0
155.003	64.0317
157.895	115.918
160.788	77.4219
163.681	11.6416
166.574	76.5054
169.466	222.335
172.359	237.957
175.252	224.789
178.144	253.579
181.037	263.132
183.93	283.525
186.822	331.273
189.715	267.696
192.608	280.963
195.501	236.008
198.393	233.656
201.286	214.927
204.179	174.881
207.071	194.317
209.964	194.914
212.857	139.684
215.75	111.43
218.642	113.38
221.535	128.939
224.428	138.473
227.32	113.218
230.213	147.186
233.106	111.596
235.998	79.6377
238.891	45.0727
241.784	2.5669
244.677	36.1406
247.569	36.8984
250.462	15.9077
253.355	25.2808
256.247	1.5625
259.14	0.932617
262.033	28.269
264.925	12.1001
267.818	36.8438
270.711	98.8013
273.603	159.67
276.496	149.556
279.389	197.403
282.282	196.375
285.174	182.931
288.067	68.7476
290.96	84.585
293.852	89.6885
296.745	88.3501
299.638	152.672
302.531	233.649
305.423	291.493
308.316	399.269
311.209	392.953
314.101	365.246
316.994	306.135
319.887	210.53
322.779	101.062
325.672	102.564
328.565	141.955
331.458	111.371
334.35	125.508
337.243	151.497
340.136	205.424
343.028	191.675
345.921	196.856
348.814	153.688
351.707	117.45
354.599	139.213
357.492	174.412
360.385	171.866
363.277	335.312
366.17	459.772
369.063	570.658
371.955	750.877
374.848	842.498
377.741	897.798
380.634	733.856
383.526	515.051
386.419	318.606
389.312	231.004
392.204	67.5156
395.097	52.2627
397.99	15.0381
400.882	30.7041
403.775	9.6123
406.668	3.64746
409.56	5.01465
412.453	7.75586
415.346	20.4004
418.239	27.6982
421.131	17.4971
424.024	32.1914
426.917	75.5508
429.809	48.3008
432.702	26.0283
435.595	14.7441
438.488	67.8545
441.38	39.9853
444.273	98.1387
447.166	46.706
450.058	97.3125
452.951	117.004
455.844	58.4121
458.736	45.4326
461.629	102.797
464.522	109.465
467.414	49.6895
470.307	88.4297
473.2	75.1621
476.093	59.206
478.985	82.8916
481.878	29.0977
484.771	44.1065
487.663	135.385
490.556	81.0674
493.449	126.504
496.341	93.2246
499.234	161.603
502.127	162.73
505.02	153.544
507.912	129.767
510.805	167.702
513.698	187.355
516.59	180.898
519.483	139.944
522.376	237.29
525.269	191.714
528.161	194.628
531.054	197.914
533.947	179.052
536.839	133.812
539.732	178.37
542.625	32.5273
545.517	116.283
548.41	142.322
551.303	179.093
554.196	73.958
557.088	186.803
559.981	198.774
562.874	106.434
565.766	98.8164
568.659	18.499
571.552	11.1826
574.444	51.3662
577.337	56.0049
580.23	64.9805
583.122	30.4062
586.015	31.0166
588.908	42.9785
591.801	13.6836
594.693	64.1318
597.586	38.5938
600.479	64.792
603.371	49.1328
606.264	21.8184
609.157	97.9639
612.049	16.7939
614.942	45.7803
617.835	46.9453
620.728	82.2373
623.62	70.4805
626.513	129.921
629.406	194.526
632.298	132.852
635.191	150.874
638.084	253.182
640.976	230.793
643.869	324.153
646.762	523.451
649.655	725.41
652.547	964.42
655.44	1279.79
658.333	1495.6
661.225	1620.76
664.118	1411.69
667.011	926.997
669.904	650.703
672.796	536.936
675.689	449.54
678.582	320.103
681.474	201.951
684.367	194.711
687.26	185.828
690.152	119.717
693.045	94.0439
695.938	20.668
698.831	50.3213
701.723	110.553
704.616	151.123
707.509	124.214
710.401	130.684
713.294	184.346
716.187	73.2188
719.079	19.1367
721.972	40.2754
724.865	55.1699
727.758	64.6797
730.65	27.0918
733.543	50.6953
736.436	21.6426
739.328	46.2227
742.221	41.6914
745.114	0.675781
748.006	85.0664
750.899	15.3125
753.792	78.9043
756.684	78.7559
759.577	125.033
762.47	31.3008
765.363	26.6953
768.255	128.852
771.148	27.3047
774.041	16.8398
776.933	21.9844
779.826	20.7129
782.719	81.8144
785.611	114.644
788.504	125.293
791.397	112.223
794.29	127.914
797.182	74.2148
800.075	119.527
802.968	61.3945
805.86	124.482
808.753	130.848
811.646	100.231
814.538	192.318
817.431	82.1055
820.324	30.2832
823.217	155.867
826.109	97.25
829.002	44.002
831.895	25.0039
834.787	128.639
837.68	89.1543
840.573	25.8047
843.466	14.8984
846.358	79.4805
849.251	18.8457
852.144	164.004
855.036	165.85
857.929	96.9785
860.822	101.367
863.715	150.127
866.607	150.352
869.5	166.373
872.393	86.4219
875.285	140.106
878.178	87.3281
881.071	83.8828
883.963	196.025
886.856	112.119
889.749	203.91
892.641	186.695
895.534	128.738
898.427	137.023
901.32	104.975
904.212	80.2578
907.105	159.779
909.998	124.697
912.89	70.4356
915.783	126.967
918.676	21.7422
921.568	55.5117
924.461	122.18
927.354	142.541
930.247	16.6777
933.139	17.2461
936.032	17.8809
938.925	6.85742
941.817	95.1406
944.71	39.7051
947.603	16.7383
950.495	26.5156
953.388	14.4238
956.281	113.248
959.174	120.465
962.066	44.7129
964.959	58.9824
967.852	68.4473
970.744	60.959
973.637	30.8008
976.53	58.4238
979.423	91.4629
982.315	22.6309
985.208	63.2969
988.101	182.06
990.993	109.061
993.886	329.514
996.779	420.045
999.671	665.596
1002.56	1039.19
1005.46	1600.31
1008.35	2193.26
1011.24	2385.32
1014.13	1745.03
1017.03	1119.58
1019.92	762.275
1022.81	466.272
1025.71	328.027
1028.6	266.891
1031.49	243.666
1034.38	291.998
1037.28	162.316
1040.17	310.701
1043.06	65.0371
1045.95	208.621
1048.85	91.6426
1051.74	47.6348
1054.63	2.57812
1057.53	22.7676
1060.42	91.7598
1063.31	186.582
1066.2	101.779
1069.1	32.8672
1071.99	75.3106
1074.88	147.574
1077.77	441.6
1080.67	849.158
1083.56	1366.36
1086.45	1342.93
1089.35	857.199
1092.24	325.949
1095.13	133.99
1098.02	49.0977
1100.92	78.7012
1103.81	155.344
1106.7	107.652
1109.59	264.699
1112.49	39.2988
1115.38	24.6016
1118.27	83.6484
1121.16	75.7363
1124.06	101.424
1126.95	63.4668
1129.84	32.8535
1132.74	176.322
1135.63	62.6113
1138.52	119.307
1141.41	109.012
1144.31	19.4492
1147.2	185.453
1150.09	212.535
1152.98	110.449
1155.88	84.082
1158.77	190.074
1161.66	282.086
1164.56	218.055
1167.45	235.078
1170.34	75.4688
1173.23	92.6797
1176.13	205.457
1179.02	74.4883
1181.91	66.8789
1184.8	128.734
1187.7	243.352
1190.59	123.758
1193.48	89.2852
1196.38	253.445
1199.27	93.2852
1202.16	22.0508
1205.05	158.019
1207.95	149.465
1210.84	41.3125
1213.73	118.879
1216.62	112.246
1219.52	56.1289
1222.41	131.801
1225.3	102.262
1228.19	105.832
1231.09	180.644
1233.98	42.8125
1236.87	206.625
1239.77	25.5
1242.66	172.723
1245.55	63.0586
1248.44	172.973
1251.34	139.91
1254.23	226.434
1257.12	14.0234
1260.01	86.332
1262.91	118.375
1265.8	260.863
1268.69	128.422
1271.59	105.699
1274.48	46.4883
1277.37	239.547
1280.26	183.457
1283.16	21.0039
1286.05	426.078
1288.94	175.535
1291.83	10.4961
1294.73	102.91
1297.62	122.07
1300.51	20.4414
1303.4	259.465
1306.3	11.4531
