Measurement: Raman, 785 nm, unoriented, Raman Data Processed
Mineral: Petedunnite
Rruff sample: R070207
Ideal chemistry: CaZn^2+^Si_2_O_6_
Locality: Franklin, New Jersey, USA
Source: William W. Pinch
Description: Dark green fine-grained massive
Measured chemistry: (Ca_0.94_Mn_0.06_)_Σ=1_(Zn_0.33_Fe^2+^_0.29_Mg_0.21_Mn_0.15_Fe^3+^_0.02_)_Σ=1_(Si_1.98_Al_0.02_)_Σ=2_O_6_ ; = gray phase
Raman shift (cm-1)	intensity
180.61	0
183.502	87.4795
186.395	159.621
189.288	206.761
192.181	214.506
195.073	159.584
197.966	165.852
200.859	65.1919
203.751	110.251
206.644	51.3745
209.537	9.53711
212.429	35.8691
215.322	13.3418
218.215	6.04394
221.108	36.7373
224	26.7764
226.893	165.039
229.786	191.944
232.678	235.541
235.571	185.574
238.464	194.956
241.357	183.689
244.249	163.611
247.142	164.572
250.035	183.266
252.927	116.757
255.82	128.379
258.713	51.4424
261.605	72.7632
264.498	63.8735
267.391	47.0669
270.284	84.584
273.176	69.5239
276.069	108.225
278.962	125.364
281.854	141.898
284.747	149.924
287.64	82.0147
290.532	90.4853
293.425	121.718
296.318	69.9902
299.211	166.71
302.103	204.547
304.996	228.816
307.889	317.146
310.781	317.772
313.674	344.541
316.567	280.542
319.459	192.213
322.352	187.165
325.245	153.231
328.137	160.908
331.03	137.751
333.923	76.0801
336.816	80.2695
339.708	47.2383
342.601	64.1177
345.494	61.2895
348.386	34.9512
351.279	19.876
354.172	55.1352
357.065	109.329
359.957	158.966
362.85	189.794
365.743	275.256
368.635	371.933
371.528	467.559
374.421	513.238
377.313	483.156
380.206	418.581
383.099	308.795
385.991	196.991
388.884	88.292
391.777	2.67188
394.67	49.2705
397.562	12.8721
400.455	11.4941
403.348	0.86377
406.24	9.96045
409.133	10.3237
412.026	6.81494
414.918	39.1255
417.811	6.76172
420.704	22.4863
423.597	42.3091
426.489	14.9907
429.382	10.8145
432.275	47.4009
435.167	84.1177
438.06	58.8813
440.953	71.2656
443.846	104.486
446.738	116.24
449.631	61.999
452.524	105.457
455.416	94.8955
458.309	78.3872
461.202	108.507
464.094	15.9111
466.987	38.0444
469.88	23.0249
472.772	25.4614
475.665	17.4575
478.558	37.436
481.451	5.52832
484.343	28.0161
487.236	63.5283
490.129	89.1938
493.021	100.039
495.914	180.863
498.807	199.681
501.7	194.676
504.592	217.023
507.485	331.856
510.378	306.507
513.27	391.525
516.163	400.571
519.056	432.459
521.948	423.679
524.841	506.521
527.734	502.211
530.626	512.726
533.519	525.086
536.412	541.717
539.305	556.365
542.197	545.444
545.09	553.448
547.983	575.356
550.875	570.333
553.768	575.375
556.661	525.199
559.553	542.548
562.446	423.773
565.339	420.889
568.232	333.945
571.124	262.04
574.017	213.355
576.91	148.443
579.802	98.5725
582.695	61.8677
585.588	40.8843
588.481	25.3379
591.373	37.5251
594.266	10.3342
597.159	21.9311
600.051	24.6343
602.944	46.9905
605.837	25.6509
608.729	18.1309
611.622	1.26245
614.515	14.2729
617.408	49.6975
620.3	53.0046
623.193	66.8914
626.086	78.4629
628.978	92.1394
631.871	60.9053
634.764	110.154
637.656	92.053
640.549	157.255
643.442	191.258
646.335	268.697
649.227	408.36
652.12	580.061
655.013	802.046
657.905	975.467
660.798	1077.94
663.691	985.522
666.583	704.82
669.476	488.497
672.369	383.585
675.261	329.264
678.154	265.81
681.047	147.367
683.94	96.7312
686.832	107.329
689.725	142.324
692.618	118.534
695.51	58.3455
698.403	105.118
701.296	108.368
704.188	69.4182
707.081	111.128
709.974	112.947
712.867	157.059
715.759	100.92
718.652	24.6567
721.545	2.05127
724.437	11.5049
727.33	27.5237
730.223	35.8381
733.115	23.3984
736.008	22.9138
738.901	19.7178
741.794	47.925
744.686	49.1128
747.579	34.6467
750.472	33.7622
753.364	35.0981
756.257	7.1416
759.15	23.877
762.043	26.8618
764.935	15.4978
767.828	15.3821
770.721	15.6379
773.613	32.2722
776.506	48.1387
779.399	53.9597
782.291	75.9981
785.184	20.4702
788.077	31.8667
790.97	48.3332
793.862	31.4863
796.755	9.24683
799.648	27.1584
802.54	13.3865
805.433	13.5278
808.326	33.3306
811.218	57.2246
814.111	65.6269
817.004	24.1655
819.896	18.3166
822.789	51.4626
825.682	25.4126
828.575	78.9907
831.467	9.67261
834.36	21.8643
837.253	0.035156
840.145	6.14014
843.038	27.7564
845.931	19.856
848.823	46.1262
851.716	60.8313
854.609	46.8281
857.502	36.3596
860.394	22.3789
863.287	52.0947
866.18	9.31177
869.072	6.57446
871.965	38.6626
874.858	19.8806
877.75	31.4092
880.643	75.9861
883.536	50.363
886.429	83.4094
889.321	70.4106
892.214	96.4402
895.107	102.496
897.999	104.36
900.892	98.333
903.785	92.584
906.678	115.075
909.57	110.84
912.463	126.914
915.356	106.95
918.248	119.742
921.141	135.988
924.034	130.568
926.926	102.294
929.819	84.8872
932.712	46.0703
935.605	62.7837
938.497	16.823
941.39	10.9688
944.283	18.6672
947.175	2.53394
950.068	18.4497
952.961	23.9685
955.853	26.9458
958.746	19.8616
961.639	14.0779
964.532	41.3474
967.424	40.4912
970.317	0.742676
973.21	54.5254
976.102	25.9404
978.995	17.2585
981.888	70.1685
984.78	37.9736
987.673	63.0994
990.566	32.9619
993.458	85.5449
996.351	163.201
999.244	267.367
1002.14	373.566
1005.03	558.975
1007.92	714.551
1010.82	844.897
1013.71	805.574
1016.6	580.556
1019.49	362.167
1022.38	247.971
1025.28	239.548
1028.17	196.534
1031.06	194.487
1033.96	204.495
1036.85	190.797
1039.74	211.358
1042.63	270.166
1045.53	231.038
1048.42	205.908
1051.31	137.608
1054.2	162.211
1057.1	143.377
1059.99	119.159
1062.88	69.0759
1065.78	117.104
1068.67	86.2319
1071.56	73.3403
1074.45	93.1838
1077.35	149.297
1080.24	190.295
1083.13	400.726
1086.03	578.196
1088.92	452.28
1091.81	174.855
1094.7	35.852
1097.6	8.74072
1100.49	22.3733
1103.38	30.563
1106.27	34.1709
1109.17	23.7349
1112.06	19.9849
1114.95	22.2224
1117.85	21.551
1120.74	10.4895
1123.63	26.0642
1126.52	46.2595
1129.41	77.4458
1132.31	71.5369
1135.2	124.144
1138.09	176.079
1140.99	128.986
1143.88	202.688
1146.77	206.464
1149.66	263.385
1152.56	310.391
1155.45	334.963
1158.34	278.612
1161.23	326.217
1164.13	299.248
1167.02	264.583
1169.91	215.617
1172.81	212.327
1175.7	221.302
1178.59	205.325
1181.48	135.841
1184.38	121.369
1187.27	160.725
1190.16	168.616
1193.06	115.148
1195.95	117.147
1198.84	170.326
1201.73	126.611
1204.63	132.636
1207.52	116.997
1210.41	107.982
1213.3	90.5295
1216.2	76.8909
1219.09	46.6487
1221.98	50.4514
1224.88	13.7039
1227.77	44.8423
