Measurement: Raman, 532 nm, unoriented, Raman Data Processed
Mineral: Pharmacolite
Rruff sample: R070517
Ideal chemistry: Ca(As^5+^O_3_OH)2H_2_O
Locality: Getchell mine, Adam Peak, Potosi District, Humboldt County, Nevada, USA
Source: James Shigley
Description: Spherical aggregates of white acicular crystals
Raman shift (cm-1)	intensity
157.869	0
160.762	182.076
163.655	159.272
166.547	19.2461
169.44	66.6856
172.333	361.441
175.225	538.246
178.118	836.365
181.011	834.859
183.904	950.033
186.796	1090.06
189.689	1310.62
192.582	1300.21
195.474	859.965
198.367	547.699
201.26	361.932
204.153	323.482
207.045	169.471
209.938	125.85
212.831	28.6309
215.723	7.33008
218.616	8.85742
221.509	88.9394
224.401	145.947
227.294	145.193
230.187	152.957
233.079	167.316
235.972	52.7285
238.865	98.6231
241.758	14.2461
244.65	192.191
247.543	48.918
250.436	25.2207
253.328	26.7168
256.221	6.28711
259.114	155.008
262.007	178.301
264.899	205.08
267.792	456.269
270.685	532.322
273.577	714.607
276.47	780.039
279.363	1028.47
282.255	1421.25
285.148	1584.82
288.041	1645.58
290.933	1317.8
293.826	929.723
296.719	724.932
299.612	787.055
302.504	722.326
305.397	785.564
308.29	773.455
311.182	509.582
314.075	398.435
316.968	267.025
319.861	177.797
322.753	288.66
325.646	418.793
328.539	297.998
331.431	442.783
334.324	542.162
337.217	595.215
340.109	693.201
343.002	628.898
345.895	455.912
348.788	413.447
351.68	547.771
354.573	684.885
357.466	576.217
360.358	511.731
363.251	409.398
366.144	442.857
369.036	305.768
371.929	315.572
374.822	209.746
377.714	305.678
380.607	5.78125
383.5	65.1758
386.393	104.481
389.285	273.994
392.178	50.4121
395.071	146.461
397.963	149.941
400.856	72.4727
403.749	151.559
406.642	198.881
409.534	319.164
412.427	321.469
415.32	273.682
418.212	128.754
421.105	28.0176
423.998	59.7617
426.89	81.1445
429.783	6.75781
432.676	10.0859
435.568	158.445
438.461	368.127
441.354	460.305
444.247	602.768
447.139	853.391
450.032	774.578
452.925	672.644
455.817	515.658
458.71	385.971
461.603	257.56
464.496	17.8145
467.388	9.69336
470.281	112.25
473.174	10.752
476.066	40.459
478.959	40.3906
481.852	136.19
484.745	226.453
487.637	213.986
490.53	260.232
493.423	348.588
496.315	164.869
499.208	136.078
502.101	138.938
504.993	59.0371
507.886	45.8047
510.779	157.154
513.672	242.945
516.564	236.111
519.457	145.779
522.35	315.377
525.242	114.867
528.135	235.637
531.028	345.76
533.92	377.574
536.813	355.473
539.706	222.188
542.598	336.297
545.491	242.885
548.384	289.688
551.277	257.342
554.169	67.0918
557.062	179.088
559.955	63.2539
562.847	91.2695
565.74	80.709
568.633	101.432
571.525	290.805
574.418	228.871
577.311	193.316
580.204	31.2734
583.096	15.7637
585.989	71.5918
588.882	19.7266
591.774	194.826
594.667	101.637
597.56	26.8555
600.452	162.231
603.345	135.973
606.238	272.043
609.131	375.045
612.023	172.469
614.916	196.803
617.809	220.699
620.701	126.885
623.594	147.641
626.487	121.775
629.38	23.0547
632.272	61.6504
635.165	86.2949
638.058	95.9277
640.95	2.83203
643.843	125.416
646.736	97.043
649.628	128.369
652.521	60.1172
655.414	130.572
658.307	276.764
661.199	234.076
664.092	361.4
666.985	386.478
669.877	459.766
672.77	424.756
675.663	467.377
678.556	427.764
681.448	566.428
684.341	573.326
687.234	576.619
690.126	825.758
693.019	1074.78
695.912	1383.92
698.804	1787.84
701.697	2269.28
704.59	2578.28
707.482	2704.37
710.375	2498.93
713.268	2097.73
716.161	1868.04
719.053	1403.65
721.946	1088.38
724.839	730.594
727.731	683.977
730.624	573.248
733.517	269.84
736.409	262.877
739.302	141.672
742.195	173.959
745.088	196.484
747.98	149.012
750.873	181.797
753.766	63.7422
756.658	108.17
759.551	159.406
762.444	106.078
765.337	21.6172
768.229	130.348
771.122	62.582
774.015	12.0508
776.907	52.3809
779.8	86.9746
782.693	39.3281
785.585	198.389
788.478	156.652
791.371	158.685
794.264	142.432
797.156	122.965
800.049	125.289
802.942	336.789
805.834	502.627
808.727	363.353
811.62	557.021
814.512	543.916
817.405	524.408
820.298	674.559
823.191	891.031
826.083	996.144
828.976	1131.18
831.869	1184.03
834.761	1316.22
837.654	1352.08
840.547	1674.04
843.439	1927.59
846.332	2479.77
849.225	3187.54
852.118	4103.07
855.01	5217.27
857.903	5902.41
860.796	6569.06
863.688	6364.75
866.581	4653.66
869.474	3330.31
872.366	2328.56
875.259	1889.8
878.152	1442.27
881.045	1299.64
883.937	1048.72
886.83	1124.8
889.723	1022.31
892.615	916.197
895.508	658.707
898.401	423.234
901.293	427.924
904.186	385.547
907.079	377.225
909.972	255.273
912.864	144.344
915.757	116.379
918.65	47.7754
921.542	124.783
924.435	105.5
927.328	160.783
930.221	41.0645
933.113	65.8574
936.006	114.006
938.899	32.5488
941.791	19.3008
944.684	85.834
947.577	176.699
950.469	8.76953
953.362	22.3633
956.255	95.3008
959.148	122.498
962.04	118.668
964.933	72.875
967.826	223.732
970.718	244.043
973.611	105.338
976.504	167.598
979.396	117.492
982.289	38.2363
985.182	232.516
988.074	250.168
990.967	402.072
993.86	457.166
996.753	572.346
999.645	1078.64
1002.54	1505.94
1005.43	1901.14
1008.32	1779.32
1011.22	1078.84
1014.11	406.967
1017	179.121
1019.89	74.668
1022.79	35.0723
1025.68	79.6055
1028.57	237.633
1031.46	270.785
1034.36	242.935
1037.25	17.9375
1040.14	22.7305
1043.04	41.4219
1045.93	105.049
1048.82	35.5566
1051.71	153.32
1054.61	90.4375
1057.5	19.4238
1060.39	98.3438
1063.29	205.211
1066.18	195.736
1069.07	252.037
1071.96	197.506
1074.86	282.315
1077.75	172.99
1080.64	32.6816
1083.53	109.998
1086.43	104.172
1089.32	139.545
1092.21	7.43164
1095.1	75.9766
1098	307.197
1100.89	258.176
1103.78	84.6621
1106.67	0.896484
1109.57	38.8613
1112.46	264.809
1115.35	247.533
1118.25	246.217
1121.14	105.281
1124.03	115.568
1126.92	292.547
1129.82	352.842
1132.71	377.705
1135.6	392.539
1138.49	305.494
1141.39	301.346
1144.28	334.861
1147.17	280.504
1150.07	126.277
1152.96	267.721
1155.85	150.69
1158.74	49.7227
1161.64	72.1367
1164.53	11.3887
1167.42	17.3652
1170.32	101.793
1173.21	82.666
1176.1	174.668
1178.99	101.85
1181.88	256.859
1184.78	365.287
1187.67	204.174
1190.56	334.084
1193.46	197.518
1196.35	250.779
1199.24	105.889
1202.13	228.705
1205.03	172.727
1207.92	19.8223
1210.81	30.25
1213.7	2.85938
1216.6	232.445
1219.49	331.387
1222.38	424.248
1225.28	253.883
1228.17	82.4336
1231.06	19.7578
1233.95	48.0215
1236.85	176.174
1239.74	46.1387
1242.63	53.6445
1245.53	49.3906
1248.42	50.4316
1251.31	11.1289
1254.2	88.5273
1257.1	83.2168
1259.99	64.5547
1262.88	228.463
1265.77	182.994
1268.67	266.441
1271.56	255.549
1274.45	122.756
1277.35	79.5938
1280.24	32.1895
1283.13	2.24609
1286.02	110.598
1288.91	100.613
1291.81	38.9102
