Measurement: Raman, 514 nm, unoriented, Raman Data Processed
Mineral: Phillipsite-Ca
Rruff sample: R050078
Ideal chemistry: Ca_3_(Si_10_Al_6_)O_32_12H_2_O
Locality: Grant County, Oregon, USA
Source: Rock Currier
Description: White tabular hexagonal
Measured chemistry: (Ca_0.90_K_0.75_[box]_0.25_Na_0.10_)_Σ=2_(Si_5.35_Al_2.65_)_Σ=8_O_16_·6H_2_O
Raman shift (cm-1)	intensity
110.082	0
114.254	609.391
118.424	1139.75
122.592	1346.84
126.758	1565.45
130.922	2034.31
135.083	1709.7
139.243	2527.33
143.401	2447.97
147.557	2252.15
151.711	1887.87
155.863	1893.11
160.013	1514.95
164.161	1292.85
168.308	1093.42
172.452	997.783
176.594	918.715
180.734	1088.89
184.872	1344.91
189.008	1483.07
193.143	2011.46
197.275	2308.53
201.405	2531.78
205.534	2717.19
209.66	2772.97
213.784	1583
217.907	1334.17
222.027	836.463
226.146	719.137
230.263	536.199
234.377	382.727
238.49	206.436
242.601	245.191
246.709	235.199
250.816	3.123
254.921	142.148
259.024	137.814
263.125	162.1
267.224	183.666
271.321	159.031
275.416	291.484
279.51	200.709
283.601	104.619
287.69	122.674
291.778	93.311
295.863	130.764
299.947	157.717
304.029	239.955
308.108	277.408
312.186	536.967
316.262	659.34
320.336	743.268
324.408	693.826
328.478	747.279
332.546	772.717
336.612	785.064
340.677	790.256
344.739	849.086
348.799	738.9
352.858	826.309
356.915	661.76
360.969	914.732
365.022	958.453
369.073	1102.03
373.122	1337.99
377.169	1429.36
381.215	1506.77
385.258	1501.38
389.299	1798.76
393.339	2463.18
397.376	2638.83
401.412	2512.73
405.446	2911.47
409.478	3119.51
413.508	3587.17
417.536	4174.33
421.562	4640.45
425.586	4752.74
429.609	4238.97
433.629	4337.35
437.648	4148.51
441.665	4637.86
445.68	5351.16
449.693	6389.04
453.704	7883.29
457.713	9458.46
461.721	11376.1
465.726	12472.5
469.73	13522.6
473.731	14466.2
477.731	14080.4
481.729	13945.1
485.725	12930.2
489.72	11063.5
493.712	8567.62
497.703	6425.08
501.691	4922.23
505.678	3938.18
509.663	3190.95
513.646	2333.73
517.627	2474.41
521.607	2130.8
525.584	1795.82
529.56	1675.32
533.534	1222.62
537.506	1051.38
541.476	1034.66
545.444	841.742
549.41	750.834
553.375	533.148
557.337	479.564
561.298	200.459
565.257	336.318
569.214	325.77
573.17	102.107
577.123	211.428
581.075	326.947
585.024	160.605
588.972	259.561
592.918	256.773
596.863	129.947
600.805	19.617
604.746	449.127
608.685	13.104
612.621	43.139
616.557	49.172
620.49	192.684
624.421	179.424
628.351	438.98
632.279	344.449
636.205	29.357
640.129	246.539
644.051	31.754
647.972	393.619
651.89	56.104
655.807	307.252
659.722	407.316
663.636	129.117
667.547	264.842
671.457	57.602
675.365	114.76
679.271	235.836
683.175	219.236
687.077	14.965
690.978	416.027
694.877	587.646
698.774	42.744
702.669	213.91
706.562	744.139
710.454	523.889
714.344	331.654
718.232	280.834
722.118	528.41
726.002	376.064
729.885	570.502
733.766	573.818
737.645	674.691
741.522	414.875
745.397	555.832
749.271	801.074
753.143	476.045
757.013	778.236
760.881	945.049
764.748	803.209
768.613	466.076
772.476	333.457
776.337	781.957
780.196	539.266
784.054	295.652
787.91	104.418
791.764	229.734
795.616	126.41
799.467	13.688
803.316	187.707
807.163	299.496
811.008	21.93
814.851	225.488
818.693	62.027
822.533	332.207
826.371	418.973
830.208	197.812
834.042	56.648
837.875	300.953
841.706	271.312
845.536	441.02
849.363	229.918
853.189	136.465
857.013	640.289
860.836	69.203
864.656	338.688
868.475	241.438
872.292	5.941
876.108	34.32
879.922	279.031
883.733	198.293
887.544	62.598
891.352	118.273
895.159	170.996
898.964	451.559
902.767	114
906.568	66.293
910.368	236.547
914.166	193.746
917.962	33.836
921.757	257.801
925.55	470.641
929.341	312.789
933.13	422.465
936.918	11.949
940.703	259.551
944.488	195.801
948.27	475.551
952.051	562.258
955.83	634.801
959.607	389.508
963.383	469.234
967.156	850.355
970.928	703.418
974.699	510.906
978.468	497.648
982.234	680.367
986	923.074
989.763	1134.51
993.525	703.59
997.285	845.223
1001.04	1070.51
1004.8	901.465
1008.55	917.504
1012.31	1206.07
1016.06	968.707
1019.81	981.492
1023.56	1216.13
1027.31	1496.54
1031.05	1753.59
1034.79	1385.17
1038.53	1711.23
1042.27	1958.97
1046.01	1652.41
1049.75	1975.18
1053.48	1841.56
1057.22	1573.02
1060.95	1670.89
1064.68	2189.14
1068.4	2330.3
1072.13	2181.96
1075.86	2428.6
1079.58	2643.18
1083.3	2092.86
1087.02	2353.02
1090.74	2029.54
1094.45	1962.26
1098.17	1655.68
1101.88	1882.04
1105.59	1962.16
1109.3	1531.5
1113.01	1693.64
1116.71	1676.33
1120.42	1170.39
1124.12	1656.21
1127.82	1272.86
1131.52	1062.4
1135.22	717.914
1138.91	1089.34
1142.61	698.262
1146.3	801.07
1149.99	525.805
1153.68	712.211
1157.37	382.438
1161.06	379.211
1164.74	493.473
1168.42	595.82
1172.1	314.238
1175.78	363.375
1179.46	577.836
1183.14	492.199
1186.81	324.934
1190.48	242.82
1194.15	51.465
1197.83	557.383
1201.49	238.43
1205.16	549.312
1208.82	18.133
1212.49	543.832
1216.15	400.918
1219.81	319.734
1223.46	88.797
1227.12	441.219
1230.78	425.926
1234.43	509.871
1238.08	469.844
1241.73	644.352
1245.38	434.52
1249.03	191.039
1252.67	359.766
1256.31	247.102
1259.95	509.023
1263.6	337.875
1267.23	276.105
1270.87	404.484
1274.51	281.984
1278.14	135.258
1281.77	573.469
1285.4	413.363
1289.03	371.652
1292.66	254.797
1296.28	355.27
1299.91	445.051
1303.53	158.23
1307.15	257.344
1310.77	432.125
1314.38	169.285
1318	268.469
1321.61	192.242
1325.23	141.414
1328.84	287.117
1332.45	205.23
1336.06	340.402
1339.66	234.344
1343.27	191.859
1346.87	236.461
1350.47	315.66
1354.07	658.91
1357.67	951.992
1361.26	969.871
1364.86	980.141
1368.45	780.41
1372.04	898.758
1375.63	949.32
1379.22	522.754
1382.81	692.105
1386.39	827.672
1389.98	774.082
1393.56	581.988
1397.14	748.109
1400.72	826.816
1404.3	548.059
1407.87	65.137
1411.45	252.871
1415.02	413.98
1418.59	243.035
1422.16	621.25
1425.73	530.414
1429.29	322.879
1432.86	412.172
1436.42	658.965
1439.98	170.965
1443.54	235.047
1447.1	149.785
1450.66	31.844
1454.21	347.566
1457.77	670.535
1461.32	749.234
1464.87	535.695
1468.42	0
