Measurement: Raman, 785 nm, unoriented, Raman Data Processed
Mineral: Phillipsite-Ca
Rruff sample: R050078
Ideal chemistry: Ca_3_(Si_10_Al_6_)O_32_12H_2_O
Locality: Grant County, Oregon, USA
Source: Rock Currier
Description: White tabular hexagonal
Measured chemistry: (Ca_0.90_K_0.75_[box]_0.25_Na_0.10_)_Σ=2_(Si_5.35_Al_2.65_)_Σ=8_O_16_·6H_2_O
Raman shift (cm-1)	intensity
145.125	0
148.018	312.504
150.911	693.898
153.803	550.092
156.696	380.678
159.589	144.182
162.481	201.77
165.374	223.276
168.267	276.557
171.16	356.992
174.052	352.208
176.945	344.426
179.838	299.854
182.73	318.653
185.623	342.199
188.516	408.367
191.408	431.335
194.301	491.269
197.194	497.538
200.087	518.304
202.979	548.604
205.872	464.481
208.765	384.894
211.657	282.704
214.55	217.514
217.443	172.474
220.335	106.082
223.228	102.59
226.121	29.5391
229.013	35.7183
231.906	19.9428
234.799	23.9933
237.692	48.6486
240.584	32.4984
243.477	25.1592
246.37	6.25439
249.262	11.7697
252.155	24.7492
255.048	9.40881
257.941	1.04553
260.833	13.8178
263.726	8.9231
266.619	23.7123
269.511	16.3914
272.404	7.91345
275.297	48.1105
278.19	34.3981
281.082	86.6971
283.975	98.9603
286.868	90.837
289.76	113.018
292.653	108.442
295.546	113.303
298.438	150.986
301.331	181.359
304.224	214.373
307.116	238.44
310.009	294.503
312.902	237.702
315.795	292.613
318.687	279.582
321.58	292.773
324.473	251.052
327.365	264.119
330.258	220.266
333.151	198.881
336.043	160.555
338.936	169.33
341.829	100.311
344.721	84.3762
347.614	23.9305
350.507	12.5027
353.4	26.9829
356.292	6.77271
359.185	31.0216
362.078	20.0482
364.97	41.1156
367.863	29.2745
370.756	49.8088
373.649	21.1129
376.541	35.6963
379.434	31.5601
382.327	30.5541
385.219	64.9418
388.112	92.9675
391.005	100.78
393.897	169.953
396.79	242.447
399.683	285.046
402.575	358.133
405.468	405.12
408.361	509.532
411.254	586.55
414.146	732.736
417.039	928.998
419.932	959.064
422.824	978.204
425.717	965.846
428.61	857.544
431.502	777.883
434.395	763.557
437.288	783.714
440.181	945.725
443.073	1095.43
445.966	1456.16
448.859	1826.08
451.751	2279.11
454.644	2888.2
457.537	3402.02
460.43	4036.05
463.322	4628.83
466.215	4989.87
469.108	5320.2
472	5500.53
474.893	5630.17
477.786	5647.7
480.678	5470.9
483.571	5230.35
486.464	4741.08
489.356	4137.9
492.249	3364.84
495.142	2667.21
498.035	1910.88
500.927	1391.35
503.82	1028.02
506.713	736.417
509.605	531.097
512.498	388.571
515.391	320.654
518.284	270.579
521.176	207.145
524.069	189.114
526.962	125.213
529.854	124.116
532.747	60.6013
535.64	38.5897
538.533	9.93994
541.425	30.5288
544.318	5.13428
547.211	27.4936
550.103	40.433
552.996	32.9553
555.889	2.02075
558.781	23.1094
561.674	51.46
564.567	17.7469
567.459	0.546509
570.352	13.2831
573.245	20.0648
576.138	37.92
579.03	53.8249
581.923	43.5832
584.816	94.9307
587.708	110.336
590.601	82.9277
593.494	137.128
596.386	137.473
599.279	152.758
602.172	152.671
605.064	167.853
607.957	151.252
610.85	146.954
613.743	178.388
616.635	174.281
619.528	142.053
622.421	123.542
625.313	131.457
628.206	118.308
631.099	138.244
633.991	140.9
636.884	118.179
639.777	121.354
642.67	101.449
645.562	89.1561
648.455	84.7241
651.348	93.306
654.24	65.2206
657.133	70.1021
660.026	60.0158
662.918	69.0589
665.811	41.3883
668.704	64.0766
671.597	19.7935
674.489	48.4427
677.382	19.3395
680.275	11.8162
683.167	3.40674
686.06	11.9147
688.953	12.1382
691.846	8.3313
694.738	16.6569
697.631	52.5916
700.524	26.7427
703.416	73.2213
706.309	37.4691
709.202	53.5935
712.094	42.1835
714.987	86.4324
717.88	63.1957
720.773	114.034
723.665	87.7154
726.558	97.7883
729.451	83.2586
732.343	84.7598
735.236	108.747
738.129	117.761
741.021	124.713
743.914	127.724
746.807	150.607
749.699	157.37
752.592	145.522
755.485	195.179
758.378	220.586
761.27	227.708
764.163	242.593
767.056	221.003
769.948	202.746
772.841	196.418
775.734	162.747
778.626	161.38
781.519	135.953
784.412	107.557
787.305	101.595
790.197	45.8327
793.09	56.7163
795.983	60.9361
798.875	41.7373
801.768	56.5685
804.661	31.4079
807.553	14.1364
810.446	8.31833
813.339	14.2273
816.232	6.36127
819.124	34.3601
822.017	2.81561
824.91	7.56815
827.802	10.0242
830.695	11.2064
833.588	7.40826
836.481	16.9856
839.373	35.804
842.266	41.1033
845.159	30.3444
848.051	22.3548
850.944	3.01959
853.837	52.7642
856.729	26.155
859.622	33.309
862.515	54.0234
865.408	51.9817
868.3	70.72
871.193	43.6659
874.086	47.0001
876.978	68.723
879.871	37.6094
882.764	38.1922
885.656	18.3102
888.549	45.3888
891.442	47.8951
894.335	39.059
897.227	39.9554
900.12	1.12582
903.013	16.5258
905.905	43.9521
908.798	22.8661
911.691	17.0619
914.583	15.8051
917.476	30.7768
920.369	3.08237
923.261	8.6734
926.154	6.76004
929.047	11.3794
931.94	10.407
934.832	3.61075
937.725	1.32816
940.618	26.9944
943.51	12.6013
946.403	14.4306
949.296	31.598
952.188	12.3928
955.081	46.0469
957.974	29.4391
960.867	31.0905
963.759	27.2488
966.652	28.6113
969.545	50.9247
972.437	37.8272
975.33	3.43622
978.223	42.8933
981.115	2.44116
984.008	8.44049
986.901	24.2352
989.794	36.7636
992.686	20.4962
995.579	6.14532
998.472	3.8941
1001.36	20.6919
1004.26	31.2413
1007.15	21.141
1010.04	8.49933
1012.93	27.2742
1015.83	8.35089
1018.72	28.1956
1021.61	27.528
1024.51	55.9399
1027.4	63.2468
1030.29	42.8243
1033.18	117.411
1036.08	63.0633
1038.97	91.626
1041.86	92.5156
1044.76	69.6255
1047.65	129.913
1050.54	101.649
1053.43	105.001
1056.33	109.999
1059.22	105.579
1062.11	116.512
1065	127.82
1067.9	145.458
1070.79	171.878
1073.68	199.827
1076.58	196.684
1079.47	222.1
1082.36	231.98
1085.25	231.903
1088.14	215.49
1091.04	243.265
1093.93	186.2
1096.82	252.187
1099.72	215.923
1102.61	206.336
1105.5	234.077
1108.39	180.813
1111.29	153.456
1114.18	177.846
1117.07	137.85
1119.96	149.571
1122.86	160.293
1125.75	118.957
1128.64	111.338
1131.54	98.3495
1134.43	77.6249
1137.32	112.932
1140.21	76.7818
1143.11	76.2247
1146	82.347
1148.89	62.6398
1151.79	65.5931
1154.68	45.7009
1157.57	51.9199
1160.46	23.0128
1163.36	2.88257
1166.25	17.8808
1169.14	16.0821
1172.03	7.07556
1174.93	4.52756
1177.82	20.9247
1180.71	0.759827
1183.6	1.53381
1186.5	8.59448
1189.39	24.5485
1192.28	30.8609
1195.17	19.6149
1198.07	6.00732
1200.96	23.595
1203.85	47.0202
1206.75	57.0161
1209.64	32.8042
1212.53	49.436
1215.42	30.8634
1218.32	56.7839
1221.21	20.9636
1224.1	26.3775
1226.99	24.9149
1229.89	52.8121
1232.78	52.2152
1235.67	4.26089
