Measurement: Raman, 532 nm, unoriented, Raman Data Processed
Mineral: Phillipsite-Ca
Rruff sample: R050078
Ideal chemistry: Ca_3_(Si_10_Al_6_)O_32_12H_2_O
Locality: Grant County, Oregon, USA
Source: Rock Currier
Description: White tabular hexagonal
Measured chemistry: (Ca_0.90_K_0.75_[box]_0.25_Na_0.10_)_Σ=2_(Si_5.35_Al_2.65_)_Σ=8_O_16_·6H_2_O
Raman shift (cm-1)	intensity
126.038	0
129.413	153.045
132.788	706.185
136.163	1558.61
139.537	2217.93
142.912	2298.91
146.287	2363.22
149.662	2458.01
153.037	2632.34
156.411	2634.22
159.786	2326.35
163.161	2046.75
166.536	1792.47
169.911	1610.82
173.286	1413.88
176.66	1306.68
180.035	1190.28
183.41	1062.51
186.785	976.254
190.16	991.741
193.535	947.619
196.909	957.962
200.284	907.096
203.659	830.434
207.034	707.899
210.409	630.705
213.783	479.014
217.158	380.802
220.533	248.545
223.908	166.126
227.283	107.35
230.657	47.0112
234.032	24.7131
237.407	10.6519
240.782	29.0039
244.157	16.4062
247.532	43.7073
250.906	15.3879
254.281	17.2398
257.656	39.1174
261.031	47.0647
264.406	19.0054
267.781	46.3752
271.155	40.1914
274.53	61.2812
277.905	96.3345
281.28	139.229
284.655	136.843
288.029	196.314
291.404	194.349
294.779	244.657
298.154	266.534
301.529	323.054
304.904	331.764
308.278	331.373
311.653	396.966
315.028	357.156
318.403	388.799
321.778	341.953
325.152	339.755
328.527	324.11
331.902	228.436
335.277	253.78
338.652	170.387
342.026	166.049
345.401	111.505
348.776	98.6187
352.151	8.81567
355.526	40.2825
358.901	3.04517
362.275	21.2512
365.65	14.158
369.025	55.8916
372.4	11.3379
375.775	57.2498
379.149	5.74536
382.524	0.486328
385.899	41.9741
389.274	113.517
392.649	167.23
396.024	273.894
399.398	328.956
402.773	370.04
406.148	450.838
409.523	619.095
412.898	755.794
416.272	901.848
419.647	982.862
423.022	992.619
426.397	963.286
429.772	931.419
433.147	960.107
436.521	1077.14
439.896	1432.02
443.271	1895.33
446.646	2427.83
450.021	3237.36
453.396	4157.01
456.77	5116.91
460.145	6176.98
463.52	6894.36
466.895	7558.4
470.27	7776.59
473.644	7789.18
477.019	7591.3
480.394	7291.51
483.769	6654.98
487.144	5749.99
490.519	4695.9
493.893	3585.65
497.268	2601.03
500.643	1813.31
504.018	1240.58
507.393	813.39
510.767	571.767
514.142	442.838
517.517	334.553
520.892	293.366
524.267	238.696
527.641	142.982
531.016	143.014
534.391	66.292
537.766	67.6812
541.141	20.019
544.516	8.83911
547.89	57.1145
551.265	53.7549
554.64	51.2764
558.015	4.02051
561.39	55.844
564.764	20.6457
568.139	7.24414
571.514	28.1333
574.889	56.8945
578.264	79.5032
581.639	37.9495
585.013	58.7949
588.388	93.3477
591.763	148.411
595.138	109.754
598.513	150.263
601.888	151.029
605.262	195.961
608.637	224.924
612.012	149.469
615.387	156.47
618.762	133.666
622.136	180.28
625.511	172.413
628.886	151.783
632.261	122.143
635.636	117.49
639.01	76.7197
642.385	100.119
645.76	92.7856
649.135	118.517
652.51	114.269
655.885	58.8286
659.259	60.5713
662.634	50.0964
666.009	72.24
669.384	55.1977
672.759	18.4883
676.134	13.5081
679.508	0.505615
682.883	14.2827
686.258	37.0437
689.633	41.4314
693.008	32.885
696.382	32.7549
699.757	56.092
703.132	40.7527
706.507	81.1296
709.882	80.1052
713.256	75.354
716.631	107.318
720.006	121.67
723.381	85.9998
726.756	96.3027
730.131	93.593
733.505	127.837
736.88	158.181
740.255	109.767
743.63	113.574
747.005	141.781
750.38	136.622
753.754	202.229
757.129	180.549
760.504	174.991
763.879	204.132
767.254	158.907
770.628	146.342
774.003	163.349
777.378	135.557
780.753	112.332
784.128	111.185
787.503	94.5989
790.877	54.4976
794.252	30.1453
797.627	12.9622
801.002	22.5427
804.377	10.593
807.751	6.81323
811.126	9.10059
814.501	33.5185
817.876	25.103
821.251	2.40356
824.625	11.4683
828	33.1577
831.375	51.7852
834.75	32.3157
838.125	30.2324
841.5	49.3369
844.874	23.0596
848.249	33.5046
851.624	58.7759
854.999	69.4346
858.374	45.2261
861.749	88.5549
865.123	97.0674
868.498	50.249
871.873	63.6838
875.248	75.7363
878.623	14.218
881.997	56.5784
885.372	83.2014
888.747	96.7029
892.122	78.759
895.497	92.8503
898.871	79.1052
902.246	78.6348
905.621	54.1619
908.996	36.4983
912.371	70.0261
915.746	76.4338
919.12	92.9963
922.495	43.0762
925.87	24.4551
929.245	24.5222
932.62	35.4573
935.995	23.0459
939.369	10.6013
942.744	4.47485
946.119	22.6855
949.494	24.9011
952.869	47.9075
956.243	28.9233
959.618	1.23193
962.993	42.6077
966.368	21.7742
969.743	73.79
973.117	30.4863
976.492	46.2632
979.867	23.0188
983.242	15.1433
986.617	44.169
989.992	19.6643
993.366	10.9619
996.741	21.9978
1000.12	44.759
1003.49	16.2932
1006.87	15.5981
1010.24	16.1724
1013.62	4.85327
1016.99	54.0764
1020.37	28.5791
1023.74	49.512
1027.12	25.5
1030.49	102.794
1033.86	108.633
1037.24	95.3188
1040.61	45.5056
1043.99	87.9551
1047.36	74.0523
1050.74	33.6987
1054.11	114.599
1057.49	154.946
1060.86	229.681
1064.24	233.008
1067.61	271.017
1070.99	354.874
1074.36	343.315
1077.74	395.03
1081.11	435.391
1084.49	480.953
1087.86	409.892
1091.24	448.15
1094.61	387.615
1097.99	410.033
1101.36	404.173
1104.73	365.858
1108.11	357.382
1111.48	313.142
1114.86	347.237
1118.23	307.621
1121.61	255.016
1124.98	227.732
1128.36	230.565
1131.73	237.256
1135.11	167.777
1138.48	171.663
1141.86	191.382
1145.23	129.278
1148.61	160.977
1151.98	131.727
1155.36	108.95
1158.73	122.148
1162.11	90.7022
1165.48	72.7375
1168.86	48.6587
1172.23	15.137
1175.61	24.8364
1178.98	5.78589
1182.36	32.6367
1185.73	2.53491
1189.11	22.417
1192.48	36.8455
1195.86	49.605
1199.23	4.43848
1202.61	6.02832
1205.98	51.2222
1209.36	11.3811
1212.73	62.7029
1216.1	54.3533
1219.48	49.1055
1222.85	77.7007
1226.23	33.7017
1229.6	115.617
1232.98	122.111
1236.35	82.5039
1239.73	79.74
1243.1	96.5776
1246.48	60.7769
1249.85	73.8364
1253.23	83.3835
1256.6	46.2778
1259.98	93.8264
1263.35	90.75
1266.73	68.5879
1270.1	32.5793
1273.48	70.6157
1276.85	14.2024
1280.23	30.8791
1283.6	80.1824
1286.98	34.9214
1290.35	38.0478
1293.72	23.0322
1297.1	31.302
1300.47	0
