Measurement: Raman, 780 nm, unoriented, Raman Data Processed
Mineral: Phillipsite-K
Rruff sample: R140774
Ideal chemistry: K_6_(Si_10_Al_6_)O_32_12H_2_O
Locality: Mt Vesuvius, Somma-Vesuvius Complex, Naples Province, Campania, Italy
Source: Ch. and H. Sch√§fer
Description: Radial aggregates of colorless prismatic crystals, associated with calcite
Raman shift (cm-1)	intensity
93.9705	0
97.3453	12.2991
100.72	0.800171
104.095	0.661499
107.47	8.86938
110.845	9.23852
114.219	7.55957
117.594	11.3723
120.969	9.72192
124.344	15.0599
127.719	12.1191
131.094	14.1148
134.468	9.88001
137.843	13.4463
141.218	15.1737
144.593	17.8951
147.968	12.0459
151.342	1.48462
154.717	3.15222
158.092	2.6416
161.467	1.58057
164.842	4.33899
168.216	0.080322
171.591	0.414795
174.966	0.15332
178.341	2.43994
181.716	6.38208
185.09	15.2441
188.465	13.6792
191.84	12.6165
195.215	17.032
198.59	19.8821
201.965	23.007
205.339	18.5626
208.714	15.0248
212.089	15.9829
215.464	14.2266
218.839	10.3585
222.214	10.3287
225.588	10.8544
228.963	6.34326
232.338	10.5059
235.713	7.39172
239.088	9.76196
242.462	4.09778
245.837	4.14685
249.212	8.27026
252.587	5.91577
255.962	1.0155
259.336	0.180908
262.711	3.88708
266.086	3.84265
269.461	1.6394
272.836	2.26623
276.211	3.03772
279.585	2.88953
282.96	3.50598
286.335	0.788208
289.71	1.35217
293.085	4.04114
296.459	6.14136
299.834	7.21118
303.209	17.8801
306.584	6.1582
309.959	8.68518
313.334	9.09021
316.708	10.7487
320.083	10.4098
323.458	17.3453
326.833	10.1151
330.207	6.29468
333.582	4.6665
336.957	11.6212
340.332	12.8377
343.707	3.82739
347.082	3.8529
350.456	1.51746
353.831	2.62891
357.206	0.929321
360.581	1.29736
363.956	1.14246
367.33	0.409058
370.705	5.8501
374.08	3.73669
377.455	2.7854
380.83	1.72595
384.205	4.31677
387.579	4.48767
390.954	4.47729
394.329	9.54712
397.704	4.97754
401.079	4.21216
404.453	9.0553
407.828	7.1925
411.203	10.5444
414.578	10.9846
417.953	9.6626
421.327	21.4222
424.702	16.538
428.077	15.9539
431.452	15.6298
434.827	12.8925
438.202	16.0465
441.576	16.373
444.951	19.2214
448.326	25.2926
451.701	40.0343
455.076	51.207
458.45	65.2022
461.825	71.4982
465.2	84.3875
468.575	90.9103
471.95	100.719
475.325	97.9644
478.699	99.4638
482.074	92.0663
485.449	77.1372
488.824	66.959
492.199	49.3198
495.573	39.3409
498.948	27.3129
502.323	17.1589
505.698	13.6613
509.073	10.5655
512.447	10.4762
515.822	9.2616
519.197	7.36511
522.572	7.05261
525.947	2.57983
529.322	6.39636
532.696	1.49707
536.071	1.44666
539.446	2.38599
542.821	2.02063
546.196	0.797729
549.57	2.09363
552.945	0.233276
556.32	1.61121
559.695	0.034058
563.07	0.125244
566.444	0.506592
569.819	2.72949
573.194	3.73377
576.569	2.5343
579.944	3.90112
583.319	3.30151
586.693	3.50598
590.068	0.810181
593.443	2.224
596.818	5.81323
600.193	3.5387
603.567	9.27454
606.942	2.17596
610.317	4.77564
613.692	4.70227
617.067	4.99512
620.442	2.80579
623.816	5.50879
627.191	2.83429
630.566	3.56647
633.941	6.60272
637.316	6.01727
640.69	6.83069
644.065	5.20776
647.44	4.19415
650.815	1.49756
654.19	2.11963
657.564	6.16382
660.939	3.3028
664.314	3.29602
667.689	3.01294
671.064	2.15167
674.439	4.85053
677.813	0.217346
681.188	1.8269
684.563	3.48193
687.938	6.11243
691.313	1.40088
694.688	2.07892
698.062	2.79279
701.437	7.22229
704.812	4.10352
708.187	4.30884
711.562	1.7132
714.936	3.66315
718.311	2.31732
721.686	1.78485
725.061	5.92633
728.436	0.142273
731.81	4.69672
735.185	2.71417
738.56	1.96161
741.935	2.15277
745.31	1.90222
748.684	1.03009
752.059	4.69525
755.434	7.50861
758.809	0.746643
762.184	1.05933
765.559	0.159058
768.933	0.149414
772.308	3.26569
775.683	0.45166
779.058	0.049377
782.433	1.35284
785.808	1.91119
789.182	1.45221
792.557	0.418213
795.932	4.11377
799.307	2.1878
802.682	0.684265
806.056	4.0235
809.431	5.21252
812.806	3.65753
816.181	4.96612
819.556	5.80536
822.93	6.63605
826.305	7.5802
829.68	7.41577
833.055	5.07983
836.43	7.60571
839.804	8.62537
843.179	5.47125
846.554	8.36523
849.929	5.87323
853.304	7.36414
856.679	6.62946
860.053	5.08636
863.428	8.43286
866.803	6.1731
870.178	6.37176
873.553	2.89575
876.927	3.14252
880.302	4.28992
883.677	3.52838
887.052	4.39349
890.427	3.65747
893.802	5.12872
897.176	0.286987
900.551	0.41687
903.926	0.124878
907.301	3.49054
910.676	0.635925
914.05	2.78284
917.425	1.53644
920.8	0.56488
924.175	1.98315
927.55	1.89246
930.924	0.621704
934.299	0.680054
937.674	5.08447
941.049	0.190857
944.424	0.46405
947.799	0.197327
951.173	0.872986
954.548	1.49762
957.923	3.88001
961.298	2.73169
964.673	4.74365
968.047	3.10358
971.422	3.52197
974.797	0.426147
978.172	1.42535
981.547	4.12415
984.922	4.97418
988.296	2.15967
991.671	0.09021
995.046	4.31616
998.421	0.408813
1001.8	0.342468
1005.17	1.71228
1008.54	1.70606
1011.92	3.02832
1015.29	3.50726
1018.67	1.31866
1022.04	2.5589
1025.42	1.51514
1028.79	2.5025
1032.17	1.04431
1035.54	5.88568
1038.92	5.15717
1042.29	2.96008
1045.67	4.35577
1049.04	3.40546
1052.42	1.51617
1055.79	2.91571
1059.17	3.44611
1062.54	2.74872
1065.92	0.796753
1069.29	1.56689
1072.67	0.853699
1076.04	2.76758
1079.42	1.59595
1082.79	2.09497
1086.17	2.1131
1089.54	3.95874
1092.92	2.25879
1096.29	0.641235
1099.66	0.496216
1103.04	0.893188
1106.41	1.0152
1109.79	4.23883
1113.16	3.93738
1116.54	0.290833
1119.91	1.52387
1123.29	3.15393
1126.66	0.357666
1130.04	1.03674
1133.41	0.693909
1136.79	1.71478
1140.16	0.970764
1143.54	2.47534
1146.91	1.13751
1150.29	0.521545
1153.66	4.04767
1157.04	0.158508
1160.41	1.24792
1163.79	2.6557
1167.16	1.12122
1170.54	1.05334
1173.91	3.50739
1177.29	3.92017
1180.66	4.50385
1184.04	3.91284
1187.41	2.61822
1190.79	2.77869
1194.16	1.28107
1197.54	4.45276
1200.91	2.40662
1204.28	2.2547
1207.66	4.27246
1211.03	0.722961
1214.41	2.23596
1217.78	3.31397
1221.16	0.086487
1224.53	3.83563
1227.91	0.837769
1231.28	3.87537
1234.66	1.78705
1238.03	1.2204
1241.41	1.57141
1244.78	0.686035
1248.16	3.04224
1251.53	2.15631
1254.91	4.89832
1258.28	4.31891
1261.66	1.36529
1265.03	3.35193
1268.41	2.67438
1271.78	1.61871
1275.16	1.15326
1278.53	2.85333
1281.9	3.49231
