Measurement: Raman, 532 nm, unoriented, Raman Data Processed
Mineral: Phlogopite
Rruff sample: R040144
Ideal chemistry: KMg_3_(Si_3_Al)O_10_(OH)_2_
Locality: Brinton's Quarry, Chester County, Pennsylvania, USA
Source: University of Arizona Mineral Museum
Description: Dark green mica book
Measured chemistry: (K_0.94_Na_0.04_)(Mg_0.82_Al_0.13_Fe_0.08_)_3_(Si_0.67_Al_0.33_)_4_O_10_((OH)_0.90_F_0.10_)_2_
Raman shift (cm-1)	intensity
165.572	0
168.464	9.85632
171.357	71.3754
174.25	239.01
177.143	531.784
180.035	1073.44
182.928	1792.66
185.821	2899.9
188.713	4592.95
191.606	6912.19
194.499	9401.76
197.391	11010.9
200.284	10125.6
203.177	7619.27
206.07	5043.14
208.962	3365.89
211.855	2331.01
214.748	1605.62
217.64	1112.8
220.533	788.903
223.426	554.133
226.318	372.863
229.211	259.072
232.104	150.9
234.996	104.074
237.889	64.3494
240.782	24.1522
243.675	10.4741
246.567	34.6921
249.46	50.4293
252.353	13.3091
255.245	33.7327
258.138	18.1912
261.031	71.4094
263.923	163.549
266.816	235.305
269.709	404.592
272.602	550.126
275.494	719.117
278.387	769.714
281.28	680.706
284.173	469.815
287.065	330.947
289.958	202.049
292.851	154.448
295.743	70.3202
298.636	37.8839
301.529	37.4163
304.421	15.5095
307.314	0.921509
310.207	7.52026
313.099	10.8866
315.992	54.3864
318.885	86.9087
321.778	125.062
324.67	203.684
327.563	260.911
330.456	392.754
333.348	445.12
336.241	547.83
339.134	632.261
342.026	751.554
344.919	853.595
347.812	953.673
350.705	1091.9
353.597	1187.67
356.49	1289.74
359.383	1341.86
362.275	1343.16
365.168	1235.3
368.061	1034.51
370.954	875.047
373.846	664.659
376.739	553.118
379.632	446.346
382.524	301.656
385.417	201.517
388.31	121.952
391.202	77.4158
394.095	70.7518
396.988	8.47522
399.88	12.9298
402.773	3.79639
405.666	0.296753
408.559	5.55286
411.451	1.83691
414.344	20.4202
417.237	18.7208
420.129	58.7268
423.022	81.1035
425.915	114.272
428.808	150.073
431.7	187.19
434.593	225.677
437.486	216.07
440.378	224.331
443.271	257.286
446.164	230.998
449.056	237.154
451.949	211.311
454.842	196.295
457.735	221.346
460.627	186.853
463.52	181.447
466.413	149.635
469.305	156.257
472.198	88.045
475.091	49.714
477.983	20.9446
480.876	20.9926
483.769	0.354492
486.661	14.2914
489.554	0.352661
492.447	11.3825
495.34	4.17883
498.232	13.7346
501.125	9.20081
504.018	18.7454
506.911	35.3639
509.803	53.3585
512.696	87.2653
515.589	117.74
518.481	152.089
521.374	181.548
524.267	216.135
527.159	238.408
530.052	232.233
532.945	234.525
535.837	180.6
538.73	179.124
541.623	120.611
544.516	130
547.408	73.354
550.301	99.813
553.194	73.3593
556.086	44.3833
558.979	50.2159
561.872	10.3158
564.764	3.0061
567.657	17.076
570.55	0.603271
573.443	3.59192
576.335	28.9907
579.228	17.6799
582.121	16.4541
585.013	16.9163
587.906	51.0498
590.799	59.2054
593.692	71.729
596.584	101.94
599.477	160.476
602.37	179.34
605.262	202.847
608.155	199.256
611.048	246.059
613.94	275.882
616.833	316.044
619.726	372.892
622.619	450.038
625.511	525.764
628.404	633.348
631.297	770.414
634.189	944.744
637.082	1197.44
639.975	1521.56
642.867	1867.94
645.76	2321.8
648.653	2684.14
651.545	2968.16
654.438	3093.09
657.331	2991.03
660.224	2735.3
663.116	2556.79
666.009	2283.8
668.902	2100.46
671.794	1987.7
674.687	1914.3
677.58	1882.05
680.472	1906.34
683.365	1886.89
686.258	1782.17
689.151	1668.09
692.043	1431.22
694.936	1189.29
697.829	930.826
700.721	762.752
703.614	545.44
706.507	407.785
709.399	293.478
712.292	216.194
715.185	152.859
718.078	83.6223
720.97	41.8788
723.863	51.3531
726.756	13.4202
729.648	0.831909
732.541	21.4729
735.434	27.6145
738.327	7.0874
741.219	5.04773
744.112	6.65515
747.005	1.6665
749.897	20.5366
752.79	9.28784
755.683	17.3975
758.576	2.06409
761.468	23.354
764.361	49.1411
767.254	56.2712
770.146	62.8529
773.039	103.316
775.932	122.045
778.824	147.52
781.717	132.375
784.61	180.295
787.503	209.845
790.395	193.911
793.288	188.065
796.181	133.244
799.073	180.416
801.966	151.827
804.859	151.211
807.751	152.688
810.644	154.754
813.537	154.731
816.429	132.849
819.322	68.9567
822.215	94.8855
825.108	78.0746
828	77.5875
830.893	38.7377
833.786	52.1927
836.678	56.9756
839.571	40.9665
842.464	27.9298
845.356	44.7772
848.249	33.426
851.142	25.4658
854.035	21.0554
856.927	19.2321
859.82	48.2116
862.713	28.7324
865.605	4.23889
868.498	16.2266
871.391	9.08813
874.284	12.6704
877.176	14.0598
880.069	21.5691
882.962	19.3577
885.854	26.5614
888.747	62.2384
891.64	58.8914
894.533	35.6019
897.425	63.6476
900.318	60.303
903.211	46.1122
906.103	53.7396
908.996	37.1145
911.889	36.2861
914.781	32.8016
917.674	18.53
920.567	23.2423
923.46	2.38525
926.352	11.9456
929.245	18.5017
932.138	26.9301
935.03	7.00891
937.923	14.9755
940.816	10.0804
943.708	29.8734
946.601	9.49304
949.494	34.1992
952.386	36.7075
955.279	71.8138
958.172	78.6113
961.065	135.272
963.957	187.132
966.85	204.282
969.743	230.187
972.635	224.814
975.528	275.786
978.421	329.977
981.313	393.694
984.206	421.235
987.099	468.119
989.992	498.55
992.884	524.761
995.777	550.033
998.67	585.542
1001.56	602.802
1004.46	687.051
1007.35	884.498
1010.24	1041.84
1013.13	1145.15
1016.03	1211.06
1018.92	1224.03
1021.81	1176.01
1024.7	1039.41
1027.6	987.949
1030.49	816.483
1033.38	677.469
1036.28	510.477
1039.17	384.993
1042.06	299.225
1044.95	239.762
1047.85	165.471
1050.74	125.364
1053.63	146.461
1056.52	144.333
1059.42	154.436
1062.31	143.712
1065.2	174.116
1068.09	134.385
1070.99	108.362
1073.88	118.565
1076.77	110.315
1079.66	99.0834
1082.56	80.0335
1085.45	51.6814
1088.34	48.9083
1091.24	31.0912
1094.13	33.0161
1097.02	5.729
1099.91	6.60535
1102.81	17.3525
1105.7	3.07007
1108.59	3.7439
1111.48	6.90991
1114.38	28.5998
1117.27	10.5604
1120.16	7.58545
1123.06	23.7759
1125.95	33.4207
1128.84	10.4237
1131.73	36.5002
1134.63	54.9429
1137.52	51.0205
1140.41	20.6658
1143.31	41.6583
1146.2	55.7808
1149.09	35.5553
1151.98	27.8589
1154.88	60.8059
1157.77	53.3877
1160.66	50.369
1163.55	42.9624
1166.45	67.2808
1169.34	83.6559
1172.23	48.9155
1175.12	74.7906
1178.02	32.2085
1180.91	45.1687
1183.8	61.3241
1186.69	46.8104
1189.59	61.5706
1192.48	33.009
1195.37	49.2472
1198.27	45.4844
1201.16	27.0158
1204.05	46.0673
1206.94	57.298
1209.84	42.8118
1212.73	50.3962
1215.62	60.0717
1218.52	48.5535
1221.41	10.4441
1224.3	6.88892
1227.19	13.2898
1230.09	30.5006
1232.98	21.0297
1235.87	23.4955
1238.76	22.151
1241.66	45.9104
1244.55	39.1006
1247.44	32.7385
1250.34	40.7534
1253.23	18.8827
1256.12	28.9725
1259.01	14.1405
1261.91	40.5425
1264.8	30.3995
1267.69	3.22644
1270.58	23.715
1273.48	0.227905
1276.37	70.916
1279.26	7.45129
1282.15	5.51184
1285.05	26.5745
1287.94	28.3027
1290.83	32.2139
1293.72	65.1233
1296.62	82.7913
1299.51	46.2798
1302.4	70.6049
1305.3	50.0138
1308.19	57.9359
1311.08	15.1495
1313.97	1.81775
