Measurement: Raman, 532 nm, unoriented, Raman Data Processed
Mineral: Phlogopite
Rruff sample: R050485
Ideal chemistry: KMg_3_(Si_3_Al)O_10_(OH)_2_
Locality: Libby, Montana, USA
Source: California Institute of Technology
Description: Green micaceous fragment
Measured chemistry: (K_0.92_Na_0.06_Ca_0.02_)(Mg_0.80_Fe^2+^_0.17_Ti_0.02_Cr_0.01_)_3_(Si_2.83_Al_1.17_)O_10_(OH)_2_
Raman shift (cm-1)	intensity
141.63	0
145.005	2.04248
148.38	7.3681
151.755	6.22238
155.129	14.6838
158.504	13.7666
161.879	15.5286
165.254	18.5016
168.629	22.3205
172.003	26.8355
175.378	34.197
178.753	39.2584
182.128	46.3353
185.503	55.0325
188.877	59.1172
192.252	58.4219
195.627	46.3778
199.002	35.9499
202.377	25.3568
205.752	19.579
209.126	14.8784
212.501	11.0924
215.876	8.62366
219.251	8.63892
222.626	6.97424
226	6.1138
229.375	5.48804
232.75	3.31503
236.125	3.73279
239.5	2.85791
242.875	4.73471
246.249	2.09204
249.624	0.271576
252.999	1.07355
256.374	0.58075
259.749	2.00897
263.123	2.3407
266.498	2.01385
269.873	6.03418
273.248	4.48602
276.623	9.02734
279.998	3.9447
283.372	1.47986
286.747	2.88806
290.122	1.09775
293.497	1.81595
296.872	1.37839
300.247	0.288025
303.621	0.198364
306.996	0.094116
310.371	0.000977
313.746	0.163605
317.12	0.056183
320.495	2.13089
323.87	2.09616
327.245	3.33972
330.62	4.48593
333.995	8.52426
337.369	11.4525
340.744	14.1966
344.119	17.7151
347.494	23.786
350.869	27.7201
354.243	25.7457
357.618	23.1756
360.993	20.4003
364.368	16.6006
367.743	11.1668
371.118	8.13797
374.492	8.96378
377.867	5.04077
381.242	5.58899
384.617	4.21628
387.992	6.55057
391.366	7.00854
394.741	6.81519
398.116	5.56659
401.491	4.52799
404.866	3.81619
408.241	4.46765
411.615	5.97553
414.99	7.5459
418.365	6.72977
421.74	5.90875
425.115	8.83658
428.49	8.69074
431.864	8.55301
435.239	7.88611
438.614	3.54944
441.989	4.64725
445.364	3.06406
448.738	5.85754
452.113	4.11038
455.488	1.95651
458.863	0.814819
462.238	0.336304
465.613	0.822784
468.987	0.615387
472.362	0.743774
475.737	0.72348
479.112	0.542572
482.486	0.328247
485.861	0.592773
489.236	4.01187
492.611	4.61368
495.986	5.36835
499.361	6.95258
502.735	8.83206
506.11	12.1302
509.485	14.9438
512.86	17.0311
516.235	21.9878
519.61	23.3603
522.984	27.2713
526.359	32.6927
529.734	34.4306
533.109	36.1887
536.484	35.6622
539.859	38.5432
543.233	39.5317
546.608	41.1182
549.983	37.5575
553.358	36.9942
556.732	34.4673
560.107	30.9712
563.482	27.7612
566.857	22.6446
570.232	17.4712
573.607	10.9077
576.981	6.9996
580.356	3.22668
583.731	2.14084
587.106	1.99716
590.481	2.90247
593.856	0.484039
597.23	0.766174
600.605	1.28827
603.98	0.932251
607.355	0.728546
610.73	3.07541
614.104	1.86084
617.479	0.572021
620.854	0.255768
624.229	1.94824
627.604	2.42453
630.979	3.72952
634.353	6.04721
637.728	6.41068
641.103	8.02783
644.478	10.0729
647.852	13.7265
651.227	15.2737
654.602	18.7197
657.977	21.8772
661.352	26.4419
664.727	32.9688
668.101	37.897
671.476	42.1976
674.851	46.2923
678.226	47.641
681.601	45.628
684.976	38.792
688.35	29.9792
691.725	22.8166
695.1	13.9688
698.475	7.70459
701.85	6.6051
705.224	3.86359
708.599	3.42273
711.974	1.45572
715.349	0.407562
718.724	1.59415
722.098	1.18829
725.473	0.573578
728.848	0.254608
732.223	0.795471
735.598	0.712158
738.973	0.849213
742.347	1.88724
745.722	2.44504
749.097	2.3334
752.472	2.20053
755.847	4.7886
759.221	3.0892
762.596	5.39496
765.971	7.74948
769.346	7.56778
772.721	8.95194
776.096	10.0338
779.47	10.8421
782.845	10.8147
786.22	9.02353
789.595	5.79761
792.97	8.66663
796.345	7.36801
799.719	8.07333
803.094	7.91235
806.469	5.74197
809.844	5.55191
813.219	2.44272
816.593	2.65878
819.968	2.57858
823.343	2.37671
826.718	3.62064
830.093	0.11557
833.467	0.196259
836.842	0.146515
840.217	2.19421
843.592	2.76236
846.967	2.63654
850.342	0.415375
853.716	2.85254
857.091	5.23102
860.466	5.71527
863.841	3.6654
867.216	3.77194
870.591	0.980103
873.965	2.60223
877.34	1.37482
880.715	4.76682
884.09	0.909668
887.465	3.55762
890.839	4.1911
894.214	1.37372
897.589	1.00732
900.964	1.53113
904.339	3.18304
907.713	4.78345
911.088	4.59125
914.463	3.0741
917.838	5.06598
921.213	5.35553
924.587	3.73669
927.962	3.87964
931.337	3.09888
934.712	4.28833
938.087	2.27356
941.462	2.73737
944.836	3.02118
948.211	1.73438
951.586	2.14465
954.961	2.86267
958.336	2.25415
961.711	1.67212
965.085	3.38922
968.46	1.63477
971.835	0.775635
975.21	1.83807
978.585	1.25171
981.959	2.20184
985.334	0.05426
988.709	0.115356
992.084	0.064026
995.459	1.93982
998.833	1.09576
1002.21	1.11353
1005.58	0.91687
1008.96	1.82574
1012.33	0.838196
1015.71	0.644531
1019.08	2.23181
1022.46	3.84387
1025.83	3.62585
1029.21	6.17712
1032.58	3.29907
1035.96	6.0889
1039.33	4.19537
1042.71	5.77515
1046.08	5.56097
1049.46	8.54633
1052.83	5.5509
1056.2	8.56958
1059.58	6.75452
1062.95	9.12537
1066.33	8.80688
1069.7	7.59503
1073.08	10.2297
1076.45	10.5812
1079.83	10.2541
1083.2	8.63025
1086.58	7.0589
1089.95	5.76269
1093.33	4.39075
1096.7	6.62476
1100.08	7.51495
1103.45	4.84186
1106.83	4.44177
1110.2	3.57269
1113.58	1.45087
1116.95	2.86401
1120.33	1.9118
1123.7	0.38678
1127.08	1.2525
1130.45	3.42682
1133.83	3.3291
1137.2	4.98077
1140.58	2.40741
1143.95	2.24884
1147.33	0.103943
1150.7	1.08441
1154.08	3.17627
1157.45	1.14014
1160.83	1.32703
1164.2	0.168701
1167.57	1.39362
1170.95	0.369019
1174.32	0.578125
1177.7	4.38959
1181.07	3.29352
1184.45	1.59662
1187.82	2.54718
1191.2	2.15778
1194.57	1.46588
1197.95	0.05896
1201.32	4.56043
1204.7	3.16632
1208.07	3.74835
1211.45	7.26465
1214.82	3.64581
1218.2	3.44519
1221.57	5.08758
1224.95	2.52356
1228.32	3.23926
1231.7	3.66736
1235.07	0.421143
1238.44	2.27417
1241.82	2.61267
1245.19	2.98126
1248.57	4.16516
1251.94	4.78174
1255.32	1.07068
1258.69	2.02374
1262.07	0.830017
1265.44	1.00958
1268.82	0.32373
1272.19	3.00336
1275.57	2.87787
1278.94	3.21606
1282.32	2.56122
1285.69	3.17096
1289.07	4.72809
1292.44	3.50848
1295.82	0.786682
1299.19	2.61755
1302.57	1.07227
