Measurement: Raman, 785 nm, unoriented, Raman Data Processed
Mineral: Phlogopite
Rruff sample: R050485
Ideal chemistry: KMg_3_(Si_3_Al)O_10_(OH)_2_
Locality: Libby, Montana, USA
Source: California Institute of Technology
Description: Green micaceous fragment
Measured chemistry: (K_0.92_Na_0.06_Ca_0.02_)(Mg_0.80_Fe^2+^_0.17_Ti_0.02_Cr_0.01_)_3_(Si_2.83_Al_1.17_)O_10_(OH)_2_
Raman shift (cm-1)	intensity
156.09	0
158.983	41.416
161.875	114.483
164.768	169.628
167.661	209.686
170.553	200.392
173.446	214.61
176.339	270.854
179.232	343.123
182.124	474.01
185.017	652.289
187.91	771.09
190.802	866.506
193.695	744.103
196.588	608.649
199.48	437.147
202.373	263.771
205.266	181.29
208.159	131.137
211.051	101.012
213.944	47.414
216.837	56.918
219.73	46.768
222.622	4.458
225.515	3.824
228.408	5.828
231.3	2.567
234.193	29.245
237.086	4.757
239.978	3.068
242.871	7.615
245.764	14.107
248.656	12.246
251.549	12.697
254.442	12.899
257.335	58.33
260.227	62.962
263.12	104.012
266.013	105.919
268.905	123.483
271.798	175.532
274.691	188.336
277.583	211.606
280.476	223.402
283.369	189.165
286.262	145.057
289.154	103.865
292.047	33.631
294.94	14.671
297.832	20.003
300.725	29.691
303.618	32.709
306.51	37.91
309.403	21.953
312.296	31.883
315.189	24.367
318.081	11.473
320.974	20.168
323.867	64.969
326.759	68.867
329.652	70.823
332.545	63.511
335.438	86.272
338.33	94.2
341.223	178.009
344.116	221.544
347.008	263.619
349.901	327.512
352.794	330.108
355.686	322.675
358.579	237.514
361.472	216.069
364.365	205.632
367.257	176.391
370.15	158.07
373.043	82.968
375.935	83.107
378.828	41.626
381.721	60.786
384.613	22.365
387.506	41.2
390.399	50.292
393.292	23.034
396.184	86.166
399.077	103.909
401.97	66.637
404.862	59.66
407.755	114.487
410.648	118.206
413.54	114.432
416.433	146.927
419.326	128.122
422.219	124.645
425.111	130.915
428.004	79.987
430.897	125.664
433.789	84.757
436.682	113.73
439.575	109.323
442.467	78.261
445.36	36.884
448.253	48.087
451.146	3.647
454.038	23.944
456.931	7.017
459.824	18.943
462.716	4.703
465.609	15.212
468.502	2.994
471.394	22.3
474.287	0.085
477.18	25.615
480.073	61.465
482.965	74.568
485.858	126.02
488.751	209.1
491.643	237.872
494.536	236.574
497.429	270.402
500.321	321.332
503.214	374.967
506.107	421.808
509	452.077
511.892	501.719
514.785	504.324
517.678	501.315
520.57	513.489
523.463	513.126
526.356	527.853
529.248	510.333
532.141	467.1
535.034	495.857
537.927	476.773
540.819	505.462
543.712	496.561
546.605	498.428
549.497	497.027
552.39	503.821
555.283	500.644
558.175	467.699
561.068	404.285
563.961	352.837
566.854	282.73
569.746	211.809
572.639	176.07
575.532	161.891
578.424	90.226
581.317	62.924
584.21	46.402
587.102	11.338
589.995	1.911
592.888	6.066
595.781	1.674
598.673	32.58
601.566	16.891
604.459	5.611
607.351	8.462
610.244	0.835
613.137	16.489
616.029	25.582
618.922	3.919
621.815	3.587
624.708	18.583
627.6	30.396
630.493	12.035
633.386	34.27
636.278	50.591
639.171	86.029
642.064	107.979
644.956	127.123
647.849	147.361
650.742	146.987
653.635	223.115
656.527	219.914
659.42	226.756
662.313	292.721
665.205	332.873
668.098	432.988
670.991	480.934
673.883	473.149
676.776	541.301
679.669	524.486
682.562	490.617
685.454	465.202
688.347	390.42
691.24	312.389
694.132	212.212
697.025	176.03
699.918	147.356
702.81	104.403
705.703	72.619
708.596	47.482
711.489	73.529
714.381	61.526
717.274	24.337
720.167	33.226
723.059	29.443
725.952	7.337
728.845	8.208
731.737	11.453
734.63	23.089
737.523	11.118
740.416	15.386
743.308	41.924
746.201	12.052
749.094	63.829
751.986	38.496
754.879	37.047
757.772	88.861
760.664	39.204
763.557	80.819
766.45	74.581
769.343	81.034
772.235	101.725
775.128	99.527
778.021	118.869
780.913	142.36
783.806	121.547
786.699	70.978
789.591	98.214
792.484	67.521
795.377	98.829
798.27	91.496
801.162	23.931
804.055	39.388
806.948	8.538
809.84	38.112
812.733	4.021
815.626	28.953
818.518	33.647
821.411	10.534
824.304	17.548
827.197	33.661
830.089	-0.896
832.982	21.04
835.875	37.791
838.767	14.272
841.66	3.556
844.553	33.398
847.445	12.666
850.338	47.769
853.231	18.827
856.124	31.897
859.016	45.68
861.909	39.985
864.802	46.474
867.694	39.76
870.587	40.044
873.48	44.339
876.372	53.13
879.265	37.631
882.158	50.209
885.051	58.433
887.943	25.3
890.836	50.919
893.729	48.603
896.621	69.539
899.514	33.966
902.407	65.151
905.299	55.102
908.192	58.626
911.085	43.557
913.978	41.827
916.87	55.693
919.763	15.406
922.656	25.954
925.549	25.117
928.441	32.865
931.334	28.413
934.227	45.007
937.119	45.498
940.012	47.59
942.905	26.367
945.797	47.948
948.69	45.812
951.583	51.656
954.476	3.845
957.368	12.48
960.261	26.385
963.154	30.406
966.046	2.301
968.939	15.082
971.832	6.635
974.724	16.438
977.617	35.835
980.51	23.86
983.403	11.722
986.295	8.011
989.188	7.103
992.081	25.906
994.973	6.265
997.866	15.007
1000.76	13.96
1003.65	3.97
1006.54	13.425
1009.44	33.671
1012.33	21.532
1015.22	30.097
1018.12	60.818
1021.01	38.99
1023.9	42.116
1026.79	69.049
1029.69	70.089
1032.58	42.343
1035.47	62.621
1038.36	79.159
1041.26	65.359
1044.15	65.261
1047.04	65.462
1049.93	60.075
1052.83	74.044
1055.72	59.119
1058.61	54.104
1061.51	49.283
1064.4	64.033
1067.29	81.679
1070.18	83.44
1073.08	70.838
1075.97	92.078
1078.86	49.418
1081.75	90.131
1084.65	61.497
1087.54	60.59
1090.43	59.478
1093.33	52.208
1096.22	51.835
1099.11	28.268
1102	50.453
1104.9	41.105
1107.79	37.975
1110.68	21.519
1113.57	15.694
1116.47	40.745
1119.36	6.427
1122.25	36.675
1125.14	24.566
1128.04	35.596
1130.93	4.451
1133.82	0.676
1136.72	1.399
1139.61	12.094
1142.5	4.283
1145.39	19.56
1148.29	0.177
1151.18	7.613
1154.07	0.247
1156.96	13.562
1159.86	23.208
1162.75	27.96
1165.64	5.479
1168.54	12.033
1171.43	31.401
1174.32	5.769
1177.21	26.671
1180.11	29.226
1183	35.219
1185.89	16.256
1188.78	11.835
1191.68	27.945
1194.57	18.014
1197.46	51.861
1200.36	36.328
1203.25	13.31
1206.14	32.664
1209.03	35.82
1211.93	23.669
1214.82	45.112
1217.71	14.465
1220.6	18.204
1223.5	36.242
1226.39	32.914
1229.28	39.712
1232.17	36.533
1235.07	31.629
1237.96	30.354
1240.85	9.8
1243.74	37.166
1246.64	31.74
1249.53	43.281
1252.42	29.908
1255.32	20.583
1258.21	30.17
