Measurement: Raman, 514 nm, unoriented, Raman Data Processed
Mineral: Phlogopite
Rruff sample: R040144
Ideal chemistry: KMg_3_(Si_3_Al)O_10_(OH)_2_
Locality: Brinton's Quarry, Chester County, Pennsylvania, USA
Source: University of Arizona Mineral Museum
Description: Dark green mica book
Measured chemistry: (K_0.94_Na_0.04_)(Mg_0.82_Al_0.13_Fe_0.08_)_3_(Si_0.67_Al_0.33_)_4_O_10_((OH)_0.90_F_0.10_)_2_
Raman shift (cm-1)	intensity
126.758	0
130.922	6.781
135.083	305.119
139.243	944.238
143.401	1273.49
147.557	1883.44
151.711	2170.46
155.863	2833.45
160.013	3288.83
164.161	3342.71
168.308	2818.73
172.452	2156.82
176.594	1843.49
180.734	1964.86
184.872	3062.98
189.008	6835.43
193.143	12197
197.275	14691.9
201.405	13023.9
205.534	9141.92
209.66	6350.39
213.784	3884.37
217.907	3063.55
222.027	2171.41
226.146	1526.21
230.263	1133.85
234.377	909.436
238.49	565.372
242.601	316.237
246.709	68.608
250.816	120.337
254.921	19.818
259.024	83.826
263.125	194.253
267.224	556.402
271.321	1019.74
275.416	1469.34
279.51	1480.33
283.601	793.15
287.69	123.278
291.778	163.737
295.863	180.069
299.947	259.244
304.029	111.567
308.108	18.042
312.186	141.485
316.262	266.385
320.336	712.756
324.408	1110.49
328.478	1611.19
332.546	2125.66
336.612	2812.56
340.677	3180.55
344.739	3540.28
348.799	4344.8
352.858	5122.65
356.915	5486.38
360.969	5840.78
365.022	5244.93
369.073	4207.09
373.122	3401.68
377.169	2813.35
381.215	2099.92
385.258	1745.57
389.299	1682.31
393.339	1431.4
397.376	1164.74
401.412	1332.42
405.446	1299.33
409.478	1134.5
413.508	1164.27
417.536	1365.14
421.562	1456.56
425.586	1694.03
429.609	1935.88
433.629	2048.66
437.648	1952.96
441.665	1906.81
445.68	1782.87
449.693	1636.05
453.704	1224.33
457.713	1070.48
461.721	1017.98
465.726	691.175
469.73	621.319
473.731	310.688
477.731	187.815
481.729	450.391
485.725	332.982
489.72	468.602
493.712	566.21
497.703	561.856
501.691	771.601
505.678	825.5
509.663	1038.58
513.646	1406.88
517.627	1554.43
521.607	1732.28
525.584	1810.43
529.56	1915.9
533.534	1763.71
537.506	1643.88
541.476	1350.46
545.444	816.503
549.41	1021
553.375	1066.97
557.337	827.355
561.298	683.306
565.257	415.814
569.214	128.82
573.17	23.926
577.123	95.804
581.075	166.143
585.024	72.97
588.972	5.194
592.918	0.761
596.863	176.351
600.805	280.949
604.746	359.968
608.685	317.528
612.621	224.035
616.557	494.333
620.49	631.989
624.421	1070.59
628.351	1064.05
632.279	1702.91
636.205	2466.05
640.129	3913.03
644.051	5446.55
647.972	7157.52
651.89	8766.74
655.807	8861.51
659.722	8429.51
663.636	7667.59
667.547	7107.56
671.457	7271.23
675.365	7008.62
679.271	7059.72
683.175	7198.59
687.077	7020.19
690.978	6316.56
694.877	4740.69
698.774	3962.61
702.669	2801.33
706.562	2200.85
710.454	1286.19
714.344	1066.36
718.232	538.375
722.118	553.35
726.002	353.691
729.885	77.533
733.766	203.465
737.645	41.117
741.522	30.537
745.397	33.25
749.271	186.674
753.143	107.617
757.013	227.574
760.881	151.773
764.748	261.6
768.613	110.545
772.476	138.777
776.337	87.59
780.196	159.395
784.054	416.246
787.91	621.17
791.764	344.189
795.616	299.328
799.467	172.57
803.316	131.926
807.163	139.393
811.008	284.955
814.851	279.6
818.693	330.326
822.533	315.133
826.371	318.682
830.208	403.021
834.042	466.113
837.875	593.428
841.706	779.002
845.536	911.74
849.363	957.734
853.189	904.014
857.013	1392.62
860.836	803.615
864.656	816.053
868.475	1153.69
872.292	1065.46
876.108	1187.46
879.922	1260.95
883.733	1173.12
887.544	1231.67
891.352	1351.18
895.159	1175.57
898.964	1113.19
902.767	1051.61
906.568	964.502
910.368	1270.55
914.166	846.527
917.962	782.625
921.757	672.338
925.55	812.756
929.341	600.625
933.13	628.328
936.918	571.248
940.703	358.393
944.488	440.734
948.27	721.27
952.051	566.99
955.83	398.898
959.607	730.984
963.383	1289.24
967.156	1053.67
970.928	1142.26
974.699	1217.02
978.468	1272.92
982.234	1378.98
986	1127.31
989.763	1404.77
993.525	1593.52
997.285	1854.17
1001.04	1444.84
1004.8	1696.13
1008.55	1908.35
1012.31	2566.37
1016.06	2651.23
1019.81	2743.21
1023.56	2939.83
1027.31	2834.61
1031.05	2673.64
1034.79	2697.78
1038.53	2528.64
1042.27	2759.38
1046.01	2617.94
1049.75	3012.22
1053.48	3458.33
1057.22	3670.14
1060.95	4375.4
1064.68	4373.3
1068.4	4176.48
1072.13	4290.4
1075.86	4185.01
1079.58	4055.29
1083.3	3673.14
1087.02	2941.31
1090.74	2525.84
1094.45	1970.16
1098.17	1496.24
1101.88	1539.09
1105.59	791.885
1109.3	1096.22
1113.01	905.273
1116.71	1017.05
1120.42	1025.53
1124.12	1115.72
1127.82	513.602
1131.52	384.176
1135.22	145.576
1138.91	77.02
1142.61	185.979
1146.3	17.541
1149.99	32.535
1153.68	52.312
1157.37	68.867
1161.06	141.346
1164.74	473.301
1168.42	530.791
1172.1	279.449
1175.78	227.291
1179.46	283.113
1183.14	46.961
1186.81	9.467
1190.48	34.369
1194.15	281.551
1197.83	130.201
1201.49	129.129
1205.16	186.637
1208.82	194.717
1212.49	234.545
1216.15	116.879
1219.81	179.74
1223.46	113.17
1227.12	295.035
1230.78	242.443
1234.43	118.439
1238.08	482.023
1241.73	375.209
1245.38	505.229
1249.03	572.568
1252.67	658.5
1256.31	1012.98
1259.95	1040.03
1263.6	1058.64
1267.23	1047.56
1270.87	958.59
1274.51	1065.94
1278.14	1181.89
1281.77	1343.87
1285.4	1336
1289.03	1709.58
1292.66	2225.07
1296.28	2739.28
1299.91	3436.18
1303.53	3793.17
1307.15	3701.65
1310.77	3662.38
1314.38	2643.18
1318	2109.95
1321.61	1642.07
1325.23	1303.64
1328.84	870.062
1332.45	617.227
1336.06	442.342
1339.66	434.406
1343.27	359.977
1346.87	425.537
1350.47	340.75
1354.07	323.639
1357.67	393.156
1361.26	405.281
1364.86	251.623
1368.45	312.123
1372.04	501.639
1375.63	322.275
1379.22	190.16
1382.81	32.322
1386.39	8.58
1389.98	56.699
1393.56	0.594
1397.14	96.908
1400.72	342.637
1404.3	380.914
1407.87	587.17
1411.45	797.467
1415.02	1060.28
1418.59	1431.86
1422.16	1690.21
1425.73	1951.62
1429.29	2598.98
1432.86	3890.41
1436.42	5690.5
1439.98	7225.12
1443.54	7446.16
1447.1	6921.35
1450.66	5987.85
1454.21	5519.44
1457.77	4810.63
1461.32	4406.85
1464.87	3643.85
1468.42	3350.78
1471.96	2454.75
1475.51	1765.85
1479.06	1393.06
1482.6	1025.42
1486.14	641.973
1489.68	382.115
1493.22	300.25
1496.75	209.854
1500.29	240.129
1503.82	38.461
1507.35	105.871
1510.88	105.49
1514.41	208.766
1517.94	204.758
1521.46	0.381
