Measurement: Raman, 780 nm, unoriented, Raman Data Processed
Mineral: Phlogopite
Rruff sample: R050485
Ideal chemistry: KMg_3_(Si_3_Al)O_10_(OH)_2_
Locality: Libby, Montana, USA
Source: California Institute of Technology
Description: Green micaceous fragment
Measured chemistry: (K_0.92_Na_0.06_Ca_0.02_)(Mg_0.80_Fe^2+^_0.17_Ti_0.02_Cr_0.01_)_3_(Si_2.83_Al_1.17_)O_10_(OH)_2_
Raman shift (cm-1)	intensity
140.066	0
142.959	0.497692
145.852	0.394978
148.744	0.224331
151.637	1.55066
154.53	0.391235
157.423	2.45027
160.315	1.00883
163.208	1.58537
166.101	2.95999
168.994	4.68031
171.886	4.33316
174.779	6.57375
177.672	8.03801
180.564	10.1638
183.457	12.9398
186.35	14.2226
189.242	14.8529
192.135	13.9226
195.028	12.6033
197.921	7.44926
200.813	6.1247
203.706	2.82463
206.599	2.8219
209.491	2.76694
212.384	2.16301
215.277	0.62088
218.169	0.917297
221.062	0.55542
223.955	0.208008
226.847	0.164322
229.74	0.73822
232.633	1.37425
235.526	0.232925
238.418	1.29529
241.311	1.91454
244.204	1.34706
247.096	2.12051
249.989	2.79246
252.882	1.15749
255.774	2.74565
258.667	3.04608
261.56	2.95009
264.453	2.14699
267.345	2.56022
270.238	2.93652
273.131	1.82439
276.023	1.74493
278.916	2.79419
281.809	2.47397
284.702	1.96797
287.594	0.882874
290.487	0.79776
293.38	0.260483
296.272	0.133896
299.165	1.37404
302.058	0.934952
304.95	0.534637
307.843	0.762009
310.736	2.17279
313.628	0.257874
316.521	1.48131
319.414	0.539185
322.307	3.43831
325.199	2.45901
328.092	2.11227
330.985	4.23595
333.877	3.91179
336.77	5.46098
339.663	5.92149
342.556	8.06056
345.448	7.63336
348.341	8.41785
351.234	7.83316
354.126	6.52443
357.019	7.04169
359.912	6.14513
362.805	5.1402
365.697	4.7395
368.59	2.94665
371.483	3.80211
374.375	2.27801
377.268	2.94144
380.161	3.04323
383.053	2.74083
385.946	1.74957
388.839	3.40534
391.731	3.32201
394.624	2.10074
397.517	3.17412
400.41	3.27454
403.302	1.55862
406.195	3.14784
409.088	2.28311
411.98	2.86768
414.873	2.33395
417.766	3.60182
420.659	2.15172
423.551	2.7887
426.444	1.70386
429.337	1.73985
432.229	0.353989
435.122	3.19095
438.015	1.93678
440.907	0.984161
443.8	1.04828
446.693	0.20694
449.586	0.085724
452.478	0.646976
455.371	0.0782962
458.264	0.159332
461.156	0.452332
464.049	0.702026
466.942	0.360123
469.834	0.049591
472.727	0.326996
475.62	0.735474
478.513	2.35077
481.405	2.45309
484.298	2.8634
487.191	3.62723
490.083	3.7643
492.976	5.15578
495.869	5.90068
498.762	7.23225
501.654	6.33572
504.547	6.96776
507.44	8.70624
510.332	8.36752
513.225	9.28954
516.118	8.01547
519.01	8.91216
521.903	9.88203
524.796	9.3696
527.688	8.80183
530.581	9.65909
533.474	8.67607
536.367	8.70308
539.259	9.71912
542.152	10.4579
545.045	10.3264
547.937	9.38388
550.83	7.58524
553.723	8.7552
556.615	7.31906
559.508	5.96065
562.401	6.04918
565.294	5.35107
568.186	5.06241
571.079	2.54036
573.972	0.945404
576.864	0.79985
579.757	1.33667
582.65	0.100922
585.543	0.830551
588.435	0.0961
591.328	1.16333
594.221	0.166473
597.113	0.3246
600.006	0.256531
602.899	0.163279
605.791	-0.0947107
608.684	0.184833
611.577	-0.0380202
614.47	0.718369
617.362	0.0784
620.255	0.344302
623.148	1.18749
626.04	0.908791
628.933	1.09296
631.826	2.68656
634.718	2.31271
637.611	2.78951
640.504	4.28108
643.397	4.09212
646.289	4.19395
649.182	4.03332
652.075	4.10046
654.967	5.25502
657.86	5.77241
660.753	5.97185
663.645	6.92545
666.538	8.47255
669.431	8.25156
672.324	8.63741
675.216	8.49823
678.109	9.4214
681.002	8.11942
683.894	7.05518
686.787	5.31451
689.68	3.70312
692.572	1.95035
695.465	3.3867
698.358	1.96989
701.251	0.376701
704.143	2.40123
707.036	0.694031
709.929	0.008377
712.821	1.21444
715.714	0.197014
718.607	0.476341
721.5	0.202194
724.392	0.544815
727.285	0.412598
730.178	0.808952
733.07	1.32987
735.963	1.22612
738.856	2.42686
741.749	0.789818
744.641	0.841835
747.534	1.6171
750.427	1.9022
753.319	1.8663
756.212	0.963638
759.105	2.37247
761.997	1.65585
764.89	1.60377
767.783	2.70603
770.676	3.75788
773.568	1.94259
776.461	2.71063
779.354	3.37979
782.246	1.37647
785.139	1.07105
788.032	2.51976
790.924	0.785896
793.817	1.97315
796.71	2.17636
799.602	1.89317
802.495	0.988106
805.388	0.154129
808.281	0.243233
811.173	0.961288
814.066	1.049
816.959	0.360947
819.851	0.827255
822.744	0.283455
825.637	0.067879
828.529	0.305664
831.422	0.101738
834.315	0.529533
837.208	0.326431
840.1	0.420876
842.993	0.538971
845.886	0.349129
848.778	1.02636
851.671	1.49792
854.564	2.05531
857.457	2.38817
860.349	2.10317
863.242	1.34219
866.135	1.75053
869.027	1.4887
871.92	1.62402
874.813	1.54096
877.705	2.15077
880.598	1.25503
883.491	1.84321
886.384	2.60654
889.276	3.09089
892.169	0.942978
895.062	1.75883
897.954	0.691216
900.847	0.316513
903.74	0.660484
906.632	0.579971
909.525	0.082458
912.418	0.773788
915.311	0.820869
918.203	0.18576
921.096	0.525742
923.989	0.327934
926.881	0.123642
929.774	0.90947
932.667	0.207458
935.559	0.863029
938.452	0.147537
941.345	0.127365
944.238	0.13765
947.13	0.044556
950.023	0.782387
952.916	0.159348
955.808	0.941841
958.701	0.012421
961.594	0.620308
964.486	1.14472
967.379	0.326118
970.272	1.56744
973.165	0.852669
976.057	1.77104
978.95	0.308296
981.843	0.116905
984.735	1.71717
987.628	0.647514
990.521	0.533997
993.413	0.342262
996.306	1.05116
999.199	0.884315
1002.09	0.911537
1004.98	0.886414
1007.88	0.900528
1010.77	0.840195
1013.66	1.13773
1016.55	1.85291
1019.45	2.93716
1022.34	1.52062
1025.23	2.16271
1028.13	1.70747
1031.02	0.889839
1033.91	1.39491
1036.8	1.51332
1039.7	2.94408
1042.59	2.12468
1045.48	2.04337
1048.38	1.06192
1051.27	1.14645
1054.16	0.940826
1057.05	1.53265
1059.95	1.74615
1062.84	2.98707
1065.73	2.63548
1068.62	2.6274
1071.52	2.50612
1074.41	1.92257
1077.3	1.87641
1080.19	2.07721
1083.09	2.7616
1085.98	2.27221
1088.87	3.75913
1091.77	2.35695
1094.66	2.59382
1097.55	1.80438
1100.44	0.92244
1103.34	0.345154
1106.23	0.44664
1109.12	0.488327
1112.01	0.370178
1114.91	1.13524
1117.8	0.137917
1120.69	0.108574
1123.59	1.41348
1126.48	0.938789
1129.37	2.06005
1132.26	0.283638
1135.16	0.096626
1138.05	0.534454
1140.94	1.58018
1143.83	1.3982
1146.73	1.15182
1149.62	1.1631
1152.51	1.51543
1155.4	1.47685
1158.3	0.79911
1161.19	1.84156
1164.08	0.615913
1166.98	1.40013
1169.87	2.16196
1172.76	2.09207
1175.65	2.2046
1178.55	1.5295
1181.44	1.94386
1184.33	2.01864
1187.22	1.19256
1190.12	1.53614
1193.01	1.32143
1195.9	0.465668
1198.8	1.32678
1201.69	1.70673
1204.58	1.74049
1207.47	1.4258
1210.37	0.90493
1213.26	0.444382
1216.15	0.390953
1219.04	0.4478
1221.94	0.047913
1224.83	0.895622
1227.72	2.255
1230.62	0.5495
1233.51	0.346146
1236.4	0.894691
1239.29	0.865593
1242.19	0.94857
1245.08	1.49279
1247.97	1.24246
1250.86	0.290634
1253.76	1.23728
1256.65	1.73629
1259.54	0.710953
1262.43	0.939232
1265.33	0.849709
1268.22	1.52996
1271.11	0.004211
1274.01	0.365631
1276.9	0.116867
1279.79	1.28285
1282.68	1.29063
1285.58	0.449623
