Measurement: Raman, 785 nm, unoriented, Raman Data Processed
Mineral: Phlogopite
Rruff sample: R040144
Ideal chemistry: KMg_3_(Si_3_Al)O_10_(OH)_2_
Locality: Brinton's Quarry, Chester County, Pennsylvania, USA
Source: University of Arizona Mineral Museum
Description: Dark green mica book
Measured chemistry: (K_0.94_Na_0.04_)(Mg_0.82_Al_0.13_Fe_0.08_)_3_(Si_0.67_Al_0.33_)_4_O_10_((OH)_0.90_F_0.10_)_2_
Raman shift (cm-1)	intensity
155.732	0
158.625	5.74731
161.517	11.386
164.41	121.945
167.303	249.204
170.195	447.321
173.088	603.705
175.981	1038.74
178.873	1534.45
181.766	2321.63
184.659	3386.51
187.552	4826.08
190.444	6715.67
193.337	8999.6
196.23	10814
199.122	10599.3
202.015	8449.87
204.908	5783.84
207.8	3890.43
210.693	2520.38
213.586	1752.38
216.478	1207.55
219.371	880.679
222.264	634.918
225.157	428.289
228.049	304.583
230.942	212.111
233.835	146.43
236.727	76.4777
239.62	44.1514
242.513	48.6703
245.405	16.2285
248.298	19.7571
251.191	10.294
254.084	51.017
256.976	6.39087
259.869	45.0424
262.762	91.8132
265.654	151.489
268.547	267.251
271.44	386.373
274.332	485.254
277.225	609.517
280.118	545.307
283.011	429.474
285.903	247.339
288.796	169.297
291.689	83.0724
294.581	37.5779
297.474	1.75928
300.367	10.8848
303.26	3.5603
306.152	12.8984
309.045	26.9424
311.938	41.7544
314.83	45.3528
317.723	92.6478
320.616	134.463
323.508	190.221
326.401	252.058
329.294	326.689
332.187	416.397
335.079	468.924
337.972	538.499
340.865	664.902
343.757	711.908
346.65	793.772
349.543	925.492
352.435	972.739
355.328	1099.97
358.221	1117.16
361.113	1110.32
364.006	1025.32
366.899	895.221
369.792	729.027
372.684	611.099
375.577	428.086
378.47	366.434
381.362	268.48
384.255	178.23
387.148	115.124
390.041	61.3094
392.933	52.9978
395.826	43.7154
398.719	44.8679
401.611	19.64
404.504	1.25415
407.397	28.8827
410.289	30.041
413.182	2.8081
416.075	35.9048
418.967	52.0061
421.86	43.5098
424.753	115.583
427.646	115.388
430.538	109.525
433.431	102.269
436.324	125.356
439.216	147.225
442.109	126.339
445.002	141.284
447.894	128.642
450.787	78.7696
453.68	65.4688
456.573	57.7279
459.465	48.542
462.358	63.894
465.251	84.5679
468.143	30.3917
471.036	26.163
473.929	4.35877
476.822	24.7801
479.714	5.78955
482.607	31.0917
485.5	12.6025
488.392	21.687
491.285	0.787231
494.178	36.4982
497.07	33.733
499.963	59.7371
502.856	21.5815
505.748	36.63
508.641	109.815
511.534	108.713
514.427	139.382
517.319	119.551
520.212	145.6
523.105	148.286
525.997	136.42
528.89	143.226
531.783	164.793
534.676	117.318
537.568	88.131
540.461	62.9169
543.354	79.3906
546.246	76.9479
549.139	45.6527
552.032	40.7976
554.924	20.2169
557.817	32.1816
560.71	21.4221
563.602	2.6654
566.495	8.51245
569.388	28.8954
572.281	8.88525
575.173	0.957153
578.066	25.7882
580.959	1.52686
583.851	5.03931
586.744	11.6294
589.637	22.6442
592.529	17.6688
595.422	46.7654
598.315	82.9925
601.208	67.82
604.1	131.866
606.993	149.032
609.886	144.905
612.778	186.244
615.671	212.278
618.564	215.232
621.457	293.135
624.349	309.332
627.242	386.483
630.135	495.785
633.027	619.25
635.92	802.781
638.813	981.628
641.705	1288.98
644.598	1575.65
647.491	1854.99
650.384	2045.38
653.276	2176.28
656.169	2077.39
659.062	1939.54
661.954	1808.24
664.847	1613.54
667.74	1491.95
670.632	1370.11
673.525	1316.03
676.418	1308.81
679.311	1307.64
682.203	1288.22
685.096	1261.56
687.989	1119.91
690.881	1016.81
693.774	812.201
696.667	707.915
699.559	521.474
702.452	430.295
705.345	290.284
708.237	204.25
711.13	150.329
714.023	116.274
716.916	79.1752
719.808	46.4221
722.701	40.6432
725.594	29.3364
728.486	5.85461
731.379	29.0266
734.272	7.54517
737.164	1.38782
740.057	13.3087
742.95	36.7656
745.843	1.66711
748.735	2.96863
751.628	26.4733
754.521	15.5077
757.413	19.8492
760.306	18.7505
763.199	45.7239
766.091	35.8831
768.984	65.7867
771.877	100.029
774.77	78.9044
777.662	107.763
780.555	85.1566
783.448	124.619
786.34	140.734
789.233	116.274
792.126	128.214
795.019	116.907
797.911	85.3178
800.804	114.995
803.697	95.1573
806.589	91.2067
809.482	63.8667
812.375	78.8616
815.267	62.6313
818.16	60.6997
821.053	33.3986
823.946	43.932
826.838	40.4308
829.731	30.8178
832.624	43.7323
835.516	47.3555
838.409	41.1586
841.302	29.2385
844.194	35.0217
847.087	0.416748
849.98	24.2656
852.872	17.7035
855.765	1.77832
858.658	24.1875
861.551	14.6512
864.443	40.5741
867.336	12.8998
870.229	30.5271
873.121	19.5868
876.014	37.797
878.907	27.9865
881.799	39.5804
884.692	28.9646
887.585	12.4073
890.478	57.3439
893.37	64.141
896.263	36.6329
899.156	28.2769
902.048	42.3964
904.941	40.4403
907.834	36.5077
910.726	23.0441
913.619	45.9365
916.512	27.6395
919.405	22.2926
922.297	13.5765
925.19	18.9254
928.083	17.5594
930.975	0.630249
933.868	2.16431
936.761	2.39356
939.654	22.5708
942.546	14.6453
945.439	31.5729
948.332	19.351
951.224	38.0207
954.117	54.0382
957.01	26.1078
959.902	55.4971
962.795	55.6881
965.688	67.1926
968.581	91.021
971.473	79.9955
974.366	122.511
977.259	142.868
980.151	181.593
983.044	190.763
985.937	244.147
988.829	261.703
991.722	263.431
994.615	317.342
997.508	319.404
1000.4	356.634
1003.29	382.399
1006.19	496.945
1009.08	584.904
1011.97	659.948
1014.86	688.631
1017.76	725.032
1020.65	677.207
1023.54	649.514
1026.43	578.921
1029.33	521.393
1032.22	412.738
1035.11	328.195
1038.01	231.131
1040.9	207.728
1043.79	137.702
1046.68	96.2489
1049.58	32.2156
1052.47	67.4562
1055.36	54.4241
1058.25	53.7024
1061.15	92.153
1064.04	57.4437
1066.93	60.5991
1069.83	28.7558
1072.72	49.5527
1075.61	43.8455
1078.5	27.6671
1081.4	10.4244
1084.29	44.1255
1087.18	21.778
1090.07	9.94183
1092.97	4.11493
1095.86	4.93384
1098.75	11.7492
1101.64	10.3007
1104.54	5.57721
1107.43	12.6252
1110.32	3.86316
1113.21	11.2636
1116.11	15.796
1119	35.8726
1121.89	29.6048
1124.79	8.60864
1127.68	2.48315
1130.57	12.4874
1133.46	19.3798
1136.36	29.0558
1139.25	41.5746
1142.14	48.9951
1145.04	38.8198
1147.93	57.4864
1150.82	31.5493
1153.71	61.5635
1156.61	24.8947
1159.5	37.3492
1162.39	43.285
1165.28	36.4634
1168.18	40.0339
1171.07	44.4458
1173.96	50.4038
1176.86	49.6998
1179.75	16.5342
1182.64	36.3612
1185.53	11.0792
1188.43	32.6241
1191.32	49.6959
1194.21	16.8982
1197.1	39.193
1200	42.9255
1202.89	5.89722
1205.78	47.7978
1208.67	23.5218
1211.57	38.2321
1214.46	36.4388
1217.35	38.2654
1220.24	43.1908
1223.14	18.9425
1226.03	34.6689
1228.92	45.7094
1231.82	28.2796
1234.71	19.7298
1237.6	19.6029
1240.49	56.131
