Measurement: Raman, 532 nm, unoriented, Raman Data Processed
Mineral: Phosphuranylite
Rruff sample: R050470
Ideal chemistry: KCa(H_3_O)_3_(U^6+^O_2_)_7_(PO_4_)_4_O_4_8H_2_O
Locality: La Faye mine, Grury District, Burgundy Region, France
Source: University of Arizona Mineral Museum
Description: Yellow thin flattened bladed crystals
Measured chemistry: (Ca_0.70_Pb_0.30_)_Σ=1_(U_1.00_O_2_)_7_(P_1.00_O_4_)_4_(OH)_4_·15.72H_2_O
Raman shift (cm-1)	intensity
163.807	0
166.7	0.518433
169.593	7.0658
172.486	8.66052
175.378	3.83313
178.271	0.702148
181.164	3.65552
184.056	1.57471
186.949	12.1318
189.842	9.39746
192.734	16.4281
195.627	12.1086
198.52	23.3796
201.412	26.1488
204.305	37.5488
207.198	37.7835
210.091	40.7694
212.983	40.8137
215.876	50.5844
218.769	55.3481
221.661	53.0685
224.554	63.4673
227.447	55.9448
230.339	63.4298
233.232	58.2852
236.125	69.7044
239.018	76.2393
241.91	87.8088
244.803	86.8842
247.696	85.0104
250.588	92.0668
253.481	100.471
256.374	97.9871
259.267	94.0742
262.159	95.5713
265.052	83.6157
267.945	82.8278
270.837	75.3152
273.73	63.3137
276.623	57.1426
279.515	51.9861
282.408	45.4319
285.301	39.5989
288.193	40.993
291.086	44.5599
293.979	35.6359
296.872	23.2598
299.764	19.1694
302.657	18.23
305.55	12.0238
308.442	10.9768
311.335	11.2258
314.228	6.56921
317.12	0.854126
320.013	0.73645
322.906	1.74878
325.799	2.22717
328.691	3.76001
331.584	3.1206
334.477	2.04517
337.369	3.04504
340.262	1.24853
343.155	2.88415
346.048	5.73975
348.94	5.76465
351.833	14.1201
354.726	11.2164
357.618	15.7988
360.511	19.423
363.404	16.4431
366.296	15.816
369.189	22.2921
372.082	30.1717
374.974	39.8186
377.867	41.8837
380.76	46.684
383.653	59.7496
386.545	64.0461
389.438	62.1091
392.331	68.325
395.223	67.7763
398.116	69.8077
401.009	62.8721
403.901	83.0176
406.794	90.8129
409.687	109.524
412.58	124.885
415.472	146.339
418.365	154.292
421.258	171.413
424.15	186.831
427.043	190.202
429.936	194.762
432.829	186.234
435.721	174.43
438.614	152.833
441.507	133.56
444.399	116.827
447.292	98.0557
450.185	74.3284
453.077	56.5427
455.97	45.2031
458.863	34.8556
461.755	24.2356
464.648	17.6813
467.541	14.9233
470.434	13.6342
473.326	6.81702
476.219	2.69385
479.112	1.4342
482.004	5.76123
484.897	2.27319
487.79	4.20215
490.683	1.83643
493.575	2.72656
496.468	2.82007
499.361	2.70361
502.253	5.15015
505.146	5.57886
508.039	3.1228
510.931	0.668701
513.824	3.08203
516.717	0.820557
519.61	9.20972
522.502	13.4465
525.395	13.6084
528.288	26.4168
531.18	23.8123
534.073	30.5928
536.966	37.394
539.859	42.7664
542.751	48.7236
545.644	63.2876
548.537	63.9363
551.429	67.2978
554.322	66.5456
557.215	70.6907
560.107	78.2368
563	73.6558
565.893	70.614
568.785	65.4548
571.678	65.707
574.571	55.6052
577.464	53.6003
580.356	40.8035
583.249	40.2891
586.142	29.7769
589.034	23.9077
591.927	19.4409
594.82	27.5085
597.712	16.8015
600.605	21.6609
603.498	28.1248
606.39	28.8413
609.283	35.9873
612.176	34.856
615.069	32.7839
617.961	22.843
620.854	22.387
623.747	22.8691
626.639	20.5085
629.532	17.9529
632.425	25.9443
635.317	17.2222
638.21	21.0456
641.103	13.8816
643.996	10.9307
646.888	8.32739
649.781	8.05078
652.674	4.29663
655.566	6.5415
658.459	6.74536
661.352	0.821045
664.245	0.001709
667.137	1.75855
670.03	5.73584
672.923	0.394287
675.815	2.65894
678.708	6.71826
681.601	1.15698
684.493	4.85596
687.386	7.25732
690.279	0.763916
693.172	5.86182
696.064	6.46289
698.957	1.95019
701.85	2.3081
704.742	0.888184
707.635	12.6553
710.528	19.665
713.42	25.2334
716.313	33.0295
719.206	42.0747
722.098	46.4072
724.991	55.7712
727.884	68.145
730.777	74.7329
733.669	87.408
736.562	100.381
739.455	125.341
742.347	138.372
745.24	156.027
748.133	165.877
751.025	185.975
753.918	218.065
756.811	244.964
759.704	275.265
762.596	301.326
765.489	319.396
768.382	331.243
771.274	331.701
774.167	345.711
777.06	353.752
779.952	354.105
782.845	347.302
785.738	347.099
788.631	324.123
791.523	321
794.416	304.95
797.309	281.649
800.201	257.431
803.094	238.151
805.987	213.586
808.88	206.619
811.772	174.204
814.665	164.26
817.558	160.46
820.45	137.474
823.343	126.852
826.236	116.99
829.128	94.4441
832.021	84.7556
834.914	63.1096
837.807	58.3227
840.699	52.7544
843.592	39.4487
846.485	27.7263
849.377	17.1357
852.27	14.8308
855.163	5.88696
858.055	4.104
860.948	10.8555
863.841	0.648438
866.734	3.19385
869.626	6.61084
872.519	4.10693
875.412	6.62939
878.304	4.62842
881.197	8.22461
884.09	2.51294
886.982	3.07153
889.875	0.256836
892.768	5.2478
895.66	1.36841
898.553	1.21533
901.446	6.55908
904.339	6.62061
907.231	12.1287
910.124	15.0049
913.017	17.2761
915.909	14.813
918.802	20.3384
921.695	19.6526
924.587	16.6582
927.48	18.9731
930.373	13.6465
933.266	11.137
936.158	10.1948
939.051	11.5039
941.944	11.259
944.836	3.57935
947.729	5.3501
950.622	8.41455
953.514	7.64404
956.407	7.76099
959.3	6.19727
962.193	8.10669
965.085	6.91284
967.978	3.6311
970.871	0.060547
973.763	7.09399
976.656	9.37866
979.549	17.3833
982.442	17.0234
985.334	12.0383
988.227	18.2671
991.12	5.51978
994.012	6.68994
996.905	9.69116
999.798	10.6921
1002.69	7.39648
1005.58	9.14526
1008.48	9.68237
1011.37	20.1562
1014.26	11.6555
1017.15	9.78638
1020.05	14.646
1022.94	15.0254
1025.83	17.7248
1028.72	20.7234
1031.62	14.3306
1034.51	10.8438
1037.4	15.5442
1040.3	22.8154
1043.19	20.7388
1046.08	32.7544
1048.97	26.8276
1051.87	20.5076
1054.76	17.9641
1057.65	25.1946
1060.54	20.3816
1063.44	20.0381
1066.33	19.1841
1069.22	7.79346
1072.12	12.199
1075.01	8.57544
1077.9	12.5063
1080.79	7.38306
1083.69	8.65991
1086.58	5.93628
1089.47	6.03076
1092.36	0.718994
1095.26	3.95752
1098.15	11.7014
1101.04	19.7412
1103.93	11.77
1106.83	9.46558
1109.72	2.96143
1112.61	7.21191
1115.51	4.84936
1118.4	8.35449
1121.29	12.7324
1124.18	2.74951
1127.08	2.0957
1129.97	9.8689
1132.86	5.48828
1135.76	18.7334
1138.65	13.4219
1141.54	5.53882
1144.43	4.16431
1147.33	0.936768
1150.22	2.31812
1153.11	6.95874
1156	5.23242
1158.9	3.98267
1161.79	5.03247
1164.68	7.55127
1167.57	5.18262
1170.47	7.552
1173.36	3.07349
1176.25	7.18335
1179.14	5.34961
1182.04	6.30908
1184.93	1.8894
1187.82	5.22217
1190.72	1.15576
1193.61	9.45898
1196.5	8.92822
1199.39	8.72144
1202.29	19.2522
1205.18	6.2981
1208.07	6.29688
1210.96	8.01807
1213.86	12.7407
1216.75	16.3169
1219.64	12.304
1222.54	9.51367
1225.43	14.3594
1228.32	8.96533
1231.21	6.39819
1234.11	9.60791
1237	3.95898
1239.89	10.884
1242.79	7.30664
1245.68	0.134277
1248.57	5.36206
1251.46	7.23926
1254.36	0.577881
1257.25	2.55176
1260.14	8.23975
1263.03	7.06372
1265.93	5.05615
1268.82	7.09131
1271.71	11.147
1274.6	7.09204
1277.5	9.10547
1280.39	1.15674
1283.28	0.442383
