Measurement: Raman, 532 nm, unoriented, Raman Data Processed
Mineral: Phosphuranylite
Rruff sample: R130108
Ideal chemistry: KCa(H_3_O)_3_(U^6+^O_2_)_7_(PO_4_)_4_O_4_8H_2_O
Locality: Shinkolobwe mine, Katanga, Zaire
Source: Don Doell
Description: Associated with metatorbernite R130109
Raman shift (cm-1)	intensity
233.032	0
235.925	1.57202
238.818	16.1814
241.71	39.2678
244.603	35.0986
247.496	28.5664
250.389	19.8357
253.281	20.5332
256.174	26.3281
259.067	32.8489
261.959	24.7065
264.852	34.2231
267.745	33.4775
270.637	32.2895
273.53	26.1929
276.423	21.2866
279.316	22.8513
282.208	19.6575
285.101	14.0102
287.994	21.2246
290.886	15.9509
293.779	10.5139
296.672	4.95068
299.565	1.0957
302.457	0.023193
305.35	1.01978
308.243	2.22315
311.135	1.79102
314.028	8.24268
316.921	14.8962
319.813	0.037354
322.706	0.243408
325.599	4.5332
328.491	3.25195
331.384	4.14624
334.277	8.79346
337.17	11.2156
340.062	17.3066
342.955	17.0427
345.848	11.3518
348.74	13.6328
351.633	7.34692
354.526	9.77271
357.418	4.6731
360.311	12.7424
363.204	14.7693
366.097	12.0666
368.989	13.3379
371.882	11.7678
374.775	16.5061
377.667	14.1958
380.56	18.6934
383.453	17.7168
386.346	19.9814
389.238	23.7832
392.131	28.6965
395.024	27.3147
397.916	19.8267
400.809	13.5508
403.702	13.8694
406.594	14.7942
409.487	17.9448
412.38	25.8577
415.272	25.3296
418.165	23.7317
421.058	29.8423
423.951	28.9492
426.843	28.7
429.736	40.7815
432.629	41.5032
435.521	43.4263
438.414	44.4314
441.307	44.6594
444.2	43.908
447.092	42.1338
449.985	31.2153
452.878	20.1692
455.77	8.37109
458.663	8.20459
461.556	1.72803
464.448	2.25464
467.341	0.607666
470.234	3.45654
473.127	0.96167
476.019	10.7854
478.912	13.5095
481.805	12.9148
484.697	6.54028
487.59	3.87964
490.483	10.822
493.375	1.48218
496.268	2.61743
499.161	4.18189
502.053	3.37427
504.946	5.33154
507.839	2.57153
510.732	6.34399
513.624	8.13892
516.517	1.40723
519.41	4.47119
522.302	6.46338
525.195	12.3511
528.088	15.2012
530.981	12.7918
533.873	20.4253
536.766	20.4439
539.659	23.1741
542.551	13.5762
545.444	1.33814
548.337	11.4932
551.229	21.1209
554.122	15.9263
557.015	9.75537
559.908	13.8833
562.8	10.4712
565.693	1.3501
568.586	5.59448
571.478	7.13818
574.371	8.10571
577.264	0.058594
580.156	5.6687
583.049	5.69165
585.942	14.0659
588.835	8.49927
591.727	20.1792
594.62	12.6172
597.513	11.8662
600.405	12.779
603.298	10.8235
606.191	8.4585
609.083	14.4334
611.976	15.113
614.869	11.5447
617.761	17.8498
620.654	19.6155
623.547	21.1462
626.44	6.98315
629.332	9.65771
632.225	8.13354
635.118	4.01099
638.01	1.74487
640.903	2.91357
643.796	0.077393
646.688	2.3125
649.581	2.52246
652.474	2.22412
655.367	8.49194
658.259	3.57031
661.152	7.16528
664.045	9.35181
666.937	4.8269
669.83	6.84741
672.723	3.4021
675.615	6.05591
678.508	3.22559
681.401	14.4753
684.294	5.16846
687.186	9.86255
690.079	21.386
692.972	22.916
695.864	10.9678
698.757	6.32446
701.65	0.235107
704.543	9.52197
707.435	9.13208
710.328	6.84082
713.221	4.66382
716.113	3.19019
719.006	6.8125
721.899	6.89062
724.791	8.44092
727.684	5.10376
730.577	6.62622
733.47	3.71875
736.362	4.77734
739.255	0.487793
742.148	4.86377
745.04	13.2493
747.933	11.3147
750.826	0.715576
753.718	0.026611
756.611	0.478027
759.504	3.69629
762.396	1.52002
765.289	4.17481
768.182	6.00073
771.075	8.24805
773.967	11.7471
776.86	10.4045
779.753	8.18359
782.645	10.5154
785.538	10.4294
788.431	10.9131
791.323	18.8909
794.216	33.1113
797.109	35.2954
800.002	37.6196
802.894	39.9131
805.787	50.302
808.68	61.0276
811.572	60.3369
814.465	62.24
817.358	63.9019
820.25	61.0344
823.143	70.2192
826.036	75.6694
828.929	77.5596
831.821	89.4058
834.714	118.189
837.607	153.127
840.5	195.849
843.392	193.983
846.285	135.317
849.178	66.6531
852.07	29.6897
854.963	21.3142
857.856	18.1951
860.748	15.686
863.641	13.5903
866.534	11.4663
869.427	7.33301
872.319	1.14111
875.212	1.71558
878.105	2.88379
880.997	3.6853
883.89	0.558105
886.783	0.259277
889.675	6.48828
892.568	0.188721
895.461	8.18823
898.354	11.1148
901.246	16.2253
904.139	7.84766
907.032	11.7175
909.924	13.5947
912.817	10.5124
915.71	9.39258
918.602	11.2583
921.495	11.9956
924.388	11.0286
927.28	8.5874
930.173	5.62988
933.066	11.4036
935.959	9.79785
938.851	16.2737
941.744	12.3589
944.637	11.8442
947.529	12.8242
950.422	5.59204
953.315	0.027588
956.207	6.21802
959.1	1.09839
961.993	8.04395
964.886	28.3581
967.778	19.6457
970.671	17.6255
973.564	18.5698
976.456	17.4443
979.349	14.448
982.242	12.033
985.135	15.3423
988.027	20.136
990.92	17.9788
993.813	20.7895
996.705	22.4795
999.598	24.2734
1002.49	20.3806
1005.38	22.6252
1008.28	29.8933
1011.17	24.6167
1014.06	27.7827
1016.95	17.9668
1019.85	14.7056
1022.74	13.0361
1025.63	13.02
1028.53	14.9836
1031.42	14.7773
1034.31	13.8174
1037.2	12.6714
1040.1	9.51367
1042.99	20.3821
1045.88	28.7593
1048.77	28.4097
1051.67	18.2681
1054.56	16.553
1057.45	10.7651
1060.35	3.72607
1063.24	5.78174
1066.13	4.8064
1069.02	0.5
1071.92	0.397949
1074.81	12.7258
1077.7	0.659424
1080.59	0.833008
1083.49	4.92725
1086.38	4.36914
1089.27	8.52832
1092.16	3.42261
1095.06	3.86719
1097.95	1.95288
1100.84	4.54736
1103.73	7.2876
1106.63	6.5332
1109.52	5.45166
1112.41	0.291748
1115.31	3.58106
1118.2	6.22412
1121.09	13.3103
1123.98	6.75098
1126.88	9.79663
1129.77	9.46948
1132.66	11.3035
1135.56	11.1982
1138.45	7.70459
1141.34	5.07202
1144.23	1.00049
1147.13	6.05859
1150.02	6.21777
1152.91	3.7561
1155.8	1.03772
1158.7	3.41162
1161.59	3.39099
1164.48	3.48071
1167.38	6.13049
1170.27	2.10315
1173.16	5.66296
1176.05	9.0177
1178.94	11.963
1181.84	5.85413
1184.73	7.09521
1187.62	1.07812
1190.52	3.04468
1193.41	3.97144
1196.3	7.5531
1199.19	10.6072
1202.09	7.94116
1204.98	8.08386
1207.87	7.2561
1210.77	9.82873
1213.66	11.1705
1216.55	6.12366
1219.44	4.53125
1222.34	5.99524
1225.23	11.4592
1228.12	4.25854
1231.01	7.02954
1233.91	5.95703
1236.8	7.32959
1239.69	2.77466
1242.59	5.44556
1245.48	5.19373
1248.37	8.43127
1251.26	7.0575
1254.16	4.57812
1257.05	3.71619
1259.94	11.1454
1262.83	11.2146
1265.73	7.03528
1268.62	16.0419
1271.51	9.95752
1274.4	7.63525
1277.3	6.70776
1280.19	4.96802
1283.08	5.65625
1285.97	2.06226
1288.87	3.51001
1291.76	2.19482
1294.65	1.02917
1297.55	2.46619
1300.44	0.296143
