Measurement: Raman, 532 nm, unoriented, Raman Data Processed
Mineral: Phosphoferrite
Rruff sample: R130690
Ideal chemistry: Fe^2+^_3_(PO_4_)_2_3H_2_O
Locality: Hagendorf, Waidhaus, Vohenstrauß, Oberpfälzer Wald, Upper Palatinate, Bavaria, Germany
Source: Rob Lavinsky
Description: Euhedral dark-grey zoned crystals with striations. Interior is colorless, clear, and exterior is dark brown. This sample represents the interior, the exterior is R140624.
Measured chemistry: (Fe^2+^_2.04_Mn_0.84_Mg_0.03_)_Σ=2.91_(PO_4_)_2_·3.08H_2_O
Raman shift (cm-1)	intensity
227.729	0
230.622	1.01843
233.514	0.939514
236.407	0.348717
239.3	0.52457
242.193	0.122456
245.085	0.486588
247.978	0.632988
250.871	1.35407
253.763	1.13663
256.656	2.03255
259.549	2.47109
262.442	1.72438
265.334	3.25456
268.227	3.34448
271.12	3.76908
274.012	3.58265
276.905	2.61546
279.798	2.69228
282.69	2.28952
285.583	2.963
288.476	2.87331
291.368	2.86881
294.261	2.09369
297.154	2.38188
300.047	2.23264
302.939	2.31471
305.832	2.37916
308.725	2.01319
311.617	2.58531
314.51	2.9737
317.403	2.30772
320.296	2.47396
323.188	1.64523
326.081	1.48315
328.974	0.867226
331.866	1.86219
334.759	1.30125
337.652	0.524994
340.544	1.71041
343.437	0.657009
346.33	0.093578
349.223	0.229843
352.115	0.192291
355.008	0.386024
357.901	0.312534
360.793	0.74242
363.686	0.195381
366.579	0.417992
369.471	0.20668
372.364	0.536594
375.257	0.57333
378.149	0.668076
381.042	1.53157
383.935	0.007603
386.828	0.679531
389.72	0.153351
392.613	0.274052
395.506	0.251293
398.398	1.00116
401.291	0.032452
404.184	1.56447
407.077	0.715405
409.969	1.69605
412.862	2.65496
415.755	1.78318
418.647	2.02782
421.54	1.55603
424.433	0.724396
427.325	0.622463
430.218	0.256889
433.111	0.400101
436.003	0.200584
438.896	0.722618
441.789	0.148331
444.682	0.683975
447.574	0.942261
450.467	1.59145
453.36	1.29871
456.252	0.921303
459.145	0.650463
462.038	0.230396
464.93	1.65865
467.823	1.10825
470.716	0.67791
473.609	2.16338
476.501	1.75209
479.394	1.31407
482.287	1.51213
485.179	1.82221
488.072	0.835087
490.965	1.23243
493.858	0.984146
496.75	0.540546
499.643	0.711498
502.536	0.42477
505.428	0.497478
508.321	0.405964
511.214	0.200031
514.106	0.211861
516.999	0.084217
519.892	1.12036
522.784	1.4474
525.677	1.85642
528.57	2.13883
531.463	2.19674
534.355	3.1265
537.248	3.33931
540.141	2.64483
543.033	3.3367
545.926	3.21098
548.819	3.4024
551.712	3.25114
554.604	3.56829
557.497	4.05913
560.39	3.72552
563.282	4.01899
566.175	4.06422
569.068	5.07082
571.96	3.95192
574.853	4.87497
577.746	3.82147
580.639	6.33173
583.531	6.07418
586.424	6.60426
589.317	7.58674
592.209	7.55907
595.102	7.08808
597.995	7.07539
600.888	6.59304
603.78	6.03437
606.673	5.37993
609.566	4.71955
612.458	3.10672
615.351	2.89176
618.244	3.13089
621.136	2.02094
624.029	1.56411
626.922	1.42427
629.814	0.896873
632.707	1.26878
635.6	0.233265
638.493	0.313923
641.385	0.427002
644.278	0.15258
647.171	0.336178
650.063	0.316753
652.956	0.121319
655.849	0.500694
658.741	0.396999
661.634	0.091896
664.527	0.105942
667.42	0.717899
670.312	1.05446
673.205	0.853542
676.098	0.943703
678.99	0.66132
681.883	1.29231
684.776	0.635368
687.668	1.61533
690.561	1.00629
693.454	0.707729
696.347	0.770039
699.239	1.09467
702.132	1.17964
705.025	0.706638
707.917	0.945206
710.81	0.928246
713.703	0.469872
716.596	0.211506
719.488	0.791477
722.381	0.276001
725.274	0.532356
728.166	1.06559
731.059	0.007103
733.952	0.338951
736.844	0.482616
739.737	1.00247
742.63	0.268578
745.523	0.686611
748.415	0.885044
751.308	0.831352
754.201	0.057465
757.093	0.54855
759.986	1.16369
762.879	0.582172
765.771	0.033882
768.664	0.394543
771.557	0.44735
774.449	0.38813
777.342	0.464504
780.235	0.134274
783.128	0.432022
786.02	0.09116
788.913	0.101395
791.806	0.002224
794.698	0.650593
797.591	0.247528
800.484	0.793213
803.376	0.344208
806.269	0.733025
809.162	0.211937
812.055	0.909126
814.947	1.44752
817.84	0.537437
820.733	0.027172
823.625	0.363186
826.518	0.65723
829.411	0.727177
832.303	0.730843
835.196	0.746346
838.089	0.957596
840.982	1.02717
843.874	0.913391
846.767	0.957081
849.66	0.677578
852.552	0.841297
855.445	1.59451
858.338	1.78108
861.231	1.42593
864.123	2.06142
867.016	1.47618
869.909	0.897964
872.801	0.817005
875.694	0.969818
878.587	0.646965
881.479	0.661659
884.372	0.065487
887.265	0.100922
890.158	1.07093
893.05	0.478901
895.943	0.412384
898.836	0.535004
901.728	0.018791
904.621	0.573494
907.514	0.268147
910.406	0.503231
913.299	0.47451
916.192	0.269833
919.085	0.133789
921.977	0.139221
924.87	0.188496
927.763	1.13976
930.655	1.51796
933.548	1.92915
936.441	2.68956
939.333	4.11493
942.226	5.7488
945.119	8.05352
948.011	10.9187
950.904	15.8154
953.797	18.1468
956.69	22.8298
959.582	30.9068
962.475	38.1424
965.368	43.1394
968.26	42.7004
971.153	36.83
974.046	27.617
976.938	20.6737
979.831	14.0032
982.724	9.76203
985.617	8.9765
988.509	7.326
991.402	6.91576
994.295	6.47484
997.187	6.59623
1000.08	6.76184
1002.97	6.78302
1005.87	6.0997
1008.76	5.93069
1011.65	4.74382
1014.54	4.17599
1017.44	1.65419
1020.33	0.714115
1023.22	0.391029
1026.11	0.326824
1029.01	0.240932
1031.9	0.21825
1034.79	0.217648
1037.68	0.156582
1040.58	0.496643
1043.47	1.18257
1046.36	2.1042
1049.26	2.48116
1052.15	2.48429
1055.04	2.82194
1057.93	2.14183
1060.83	2.83291
1063.72	1.78592
1066.61	1.97139
1069.51	0.574841
1072.4	0.538208
1075.29	0.614216
1078.18	0.921749
1081.08	0.164967
1083.97	0.690617
1086.86	0.944916
1089.75	1.24839
1092.65	1.83261
1095.54	1.59533
1098.43	1.91953
1101.33	2.35468
1104.22	1.64911
1107.11	1.7225
1110	2.06899
1112.89	1.81564
1115.79	2.108
1118.68	1.36564
1121.57	2.96692
1124.47	1.4206
1127.36	1.35945
1130.25	0.423767
1133.14	0.820484
1136.04	1.09558
1138.93	0.126003
1141.82	0.233021
1144.71	0.256554
1147.61	0.02626
1150.5	0.639297
1153.39	0.221493
1156.29	0.583717
1159.18	0.884205
1162.07	0.569244
1164.96	0.444012
1167.86	0.387844
1170.75	0.355362
1173.64	0.47575
1176.54	0.136127
1179.43	0.973618
1182.32	1.20971
1185.21	0.76329
1188.11	0.797047
1191	0.946384
1193.89	1.8361
1196.78	1.13555
1199.68	2.37408
1202.57	0.886734
1205.46	1.27839
1208.35	1.39251
1211.25	1.35749
1214.14	0.909458
1217.03	1.03573
1219.92	1.53941
1222.82	1.41857
1225.71	1.18916
1228.6	0.498882
1231.5	1.15702
1234.39	0.317856
1237.28	0.811378
1240.17	0.973949
1243.07	0.628349
1245.96	1.14085
1248.85	0.702412
1251.74	0.73251
1254.64	0.800377
1257.53	0.356365
1260.42	0.936745
1263.32	0.640221
1266.21	0.321194
1269.1	1.19614
1271.99	1.01781
1274.89	0.943878
1277.78	0.168453
1280.67	0.50499
1283.57	1.33359
1286.46	0.106194
1289.35	0.793655
1292.24	0.668888
1295.13	0.971951
1298.03	0.475677
1300.92	0.084393
