Measurement: Raman, 780 nm, unoriented, Raman Data Processed
Mineral: Phosphoferrite
Rruff sample: R090065
Ideal chemistry: Fe^2+^_3_(PO_4_)_2_3H_2_O
Locality: Germany
Source: Royal Ontario Museum
Description: Dark brown pseudo-octahedral crystals on matrix
Measured chemistry: (Fe^+2^_2.376_Mn^+2^_0.758_Ca_0.03_)_Σ=3.164_(P_0.967_O_4_)_2_·3H_2_O
Raman shift (cm-1)	intensity
114.004	0
117.379	0.831696
120.754	0.887222
124.129	4.49458
127.504	5.09065
130.879	5.80121
134.253	6.56004
137.628	5.92891
141.003	4.63216
144.378	2.94473
147.753	3.43999
151.127	1.72577
154.502	1.23727
157.877	1.9465
161.252	0.393677
164.627	0.542831
168.002	0.538086
171.376	1.76071
174.751	0.096207
178.126	1.45653
181.501	2.16945
184.876	2.83021
188.25	2.46141
191.625	3.0056
195	3.46761
198.375	3.62907
201.75	3.11461
205.125	3.18933
208.499	3.08362
211.874	3.60741
215.249	1.99048
218.624	2.16011
221.999	2.14976
225.374	0.454758
228.748	0.464218
232.123	0.786362
235.498	1.1909
238.873	0.783966
242.248	0.880997
245.622	1.62996
248.997	4.38025
252.372	4.33727
255.747	7.50739
259.122	9.94817
262.496	11.5622
265.871	17.3761
269.246	20.6277
272.621	23.7837
275.996	26.8246
279.37	26.5042
282.745	27.3276
286.12	25.6022
289.495	22.911
292.87	21.1844
296.245	16.2333
299.619	13.4405
302.994	10.7223
306.369	9.70952
309.744	7.20608
313.119	7.07659
316.493	5.9096
319.868	7.1646
323.243	7.34443
326.618	6.6508
329.993	5.05301
333.368	6.18365
336.742	5.34992
340.117	4.15105
343.492	3.42683
346.867	2.83028
350.242	1.74959
353.616	2.0349
356.991	1.77771
360.366	1.19678
363.741	0.129456
367.116	0.490051
370.491	0.824463
373.865	1.15376
377.24	0.83094
380.615	0.247528
383.99	0.085045
387.365	0.311287
390.74	1.58541
394.114	2.14792
397.489	5.55984
400.864	3.39667
404.239	4.29518
407.614	4.71946
410.988	5.44483
414.363	6.84164
417.738	5.55657
421.113	4.60123
424.488	4.22308
427.863	3.44193
431.237	3.19125
434.612	3.05234
437.987	2.1502
441.362	2.88071
444.736	2.58683
448.111	2.81059
451.486	1.72634
454.861	3.12312
458.236	2.85127
461.611	2.99017
464.985	2.8667
468.36	2.69814
471.735	1.20084
475.11	2.63123
478.485	2.54134
481.86	0.031685
485.234	1.22138
488.609	0.057632
491.984	0.723274
495.359	1.11772
498.734	0.771835
502.108	1.94446
505.483	1.36466
508.858	3.61822
512.233	4.30924
515.608	5.73511
518.982	5.92264
522.357	9.40676
525.732	11.5066
529.107	13.9487
532.482	15.4268
535.857	17.2914
539.231	17.2139
542.606	18.205
545.981	14.6634
549.356	14.6273
552.731	12.2732
556.106	12.1271
559.48	11.0506
562.855	11.0042
566.23	10.7863
569.605	13.8095
572.98	15.9098
576.354	19.6887
579.729	20.7518
583.104	25.9883
586.479	26.0555
589.854	26.5749
593.229	24.2512
596.603	24.2546
599.978	20.7055
603.353	17.4198
606.728	13.1585
610.102	14.3131
613.477	9.81778
616.852	8.38833
620.227	6.23135
623.602	5.16432
626.977	4.14882
630.351	3.87676
633.726	1.10335
637.101	0.329872
640.476	0.115295
643.851	0.094009
647.226	0.073288
650.6	0.013649
653.975	1.43308
657.35	0.731166
660.725	0.250137
664.1	0.797127
667.474	1.80617
670.849	0.442642
674.224	1.3819
677.599	1.7461
680.974	1.84566
684.348	1.84929
687.723	2.08205
691.098	2.09145
694.473	2.05872
697.848	1.63371
701.223	2.1759
704.597	0.164001
707.972	1.58874
711.347	1.10045
714.722	1.30104
718.097	1.72149
721.471	1.61512
724.846	0.827232
728.221	1.27735
731.596	0.326866
734.971	0.898781
738.346	1.72918
741.72	0.162476
745.095	0.353447
748.47	1.10218
751.845	1.45132
755.22	0.29467
758.595	0.94059
761.969	1.155
765.344	0.208405
768.719	1.2958
772.094	0.569351
775.469	0.914154
778.843	0.970711
782.218	1.66305
785.593	0.782959
788.968	1.68301
792.343	1.01505
795.717	2.29145
799.092	2.57118
802.467	1.21699
805.842	3.23968
809.217	3.29414
812.592	3.43005
815.966	2.10852
819.341	3.32334
822.716	2.89785
826.091	3.48218
829.466	3.23563
832.84	3.39533
836.215	1.97871
839.59	2.36712
842.965	2.76204
846.34	1.13592
849.715	3.26336
853.089	3.68195
856.464	3.58112
859.839	2.49655
863.214	3.07793
866.589	2.57967
869.963	2.70554
873.338	2.13841
876.713	2.29616
880.088	0.861603
883.463	1.70731
886.837	1.61098
890.212	0.697762
893.587	0.885376
896.962	0.387939
900.337	1.60198
903.712	1.49381
907.086	0.104469
910.461	0.027214
913.836	1.9491
917.211	1.34813
920.586	0.439568
923.96	1.7568
927.335	2.71949
930.71	4.54913
934.085	6.96478
937.46	9.91351
940.835	13.5521
944.209	18.7635
947.584	25.2715
950.959	36.7493
954.334	46.5323
957.709	56.4717
961.083	63.6315
964.458	60.7278
967.833	53.1557
971.208	39.0245
974.583	30.741
977.957	21.4422
981.332	17.2904
984.707	13.506
988.082	11.9063
991.457	10.4007
994.832	7.47243
998.206	6.52525
1001.58	5.72355
1004.96	3.31054
1008.33	2.07909
1011.71	0.142845
1015.08	1.03484
1018.46	0.090233
1021.83	0.199135
1025.2	1.03251
1028.58	1.48418
1031.95	0.436913
1035.33	2.50459
1038.7	1.87463
1042.08	3.64465
1045.45	3.23081
1048.83	3.25257
1052.2	0.584724
1055.58	2.82616
1058.95	0.812218
1062.33	1.14896
1065.7	2.21352
1069.08	1.70072
1072.45	0.185173
1075.83	1.56525
1079.2	0.768929
1082.58	1.59731
1085.95	0.935539
1089.33	1.08788
1092.7	3.72486
1096.08	1.06682
1099.45	2.0802
1102.83	2.38802
1106.2	3.01717
1109.58	3.32482
1112.95	3.46133
1116.33	1.54047
1119.7	2.20361
1123.08	2.58082
1126.45	1.63076
1129.82	1.28445
1133.2	0.29496
1136.57	0.208511
1139.95	0.087845
1143.32	0.258736
1146.7	0.85479
1150.07	0.351936
1153.45	0.113632
1156.82	0.700081
1160.2	0.020798
1163.57	1.22191
1166.95	0.991234
1170.32	0.811729
1173.7	0.17606
1177.07	0.782333
1180.45	1.68778
1183.82	0.758366
1187.2	0.965771
1190.57	1.90048
1193.95	1.71718
1197.32	1.33196
1200.69	2.87049
1204.07	3.03812
1207.44	0.923985
1210.82	1.79089
1214.19	2.33506
1217.57	2.78403
1220.94	1.26677
1224.32	2.47552
1227.69	1.46866
1231.07	2.25514
1234.44	2.07581
1237.82	2.75161
1241.19	2.71294
1244.57	1.15567
1247.94	1.44972
1251.32	0.968681
1254.69	1.65031
1258.07	1.47561
1261.44	0.753536
1264.82	0.515564
1268.19	2.71152
1271.57	1.33792
1274.94	0.896664
1278.32	0.285885
1281.69	0.717926
1285.07	0
