Measurement: Raman, 532 nm, unoriented, Raman Data Processed
Mineral: Phurcalite
Rruff sample: R060698
Ideal chemistry: Ca_2_(U^6+^O_2_)_3_O_2_(PO_4_)_2_7H_2_O
Locality: Los Azules, Copiapo, Chile
Source: Bob Jenkins
Description: Divergent sprays of bright yellow acicular crystals
Raman shift (cm-1)	intensity
213.124	0
216.017	52.0312
218.909	673.734
221.802	996.297
224.695	279.656
227.587	818.281
230.48	942.641
233.373	821.5
236.266	870.047
239.158	530.406
242.051	780.781
244.944	1540.58
247.836	2818.64
250.729	2910.83
253.622	1727.89
256.514	955.969
259.407	980.172
262.3	1631.78
265.193	2530.44
268.085	3140.03
270.978	2707.25
273.871	1778.88
276.763	2062
279.656	2350.62
282.549	2712.59
285.441	3580.91
288.334	2188.12
291.227	1424
294.12	954.344
297.012	351.906
299.905	633.281
302.798	427.688
305.69	2393.59
308.583	2762.19
311.476	2819.12
314.369	1375.62
317.261	668.719
320.154	309.562
323.047	656.031
325.939	834.219
328.832	1631.47
331.725	1305.16
334.617	1703.25
337.51	1136
340.403	1092.25
343.296	837.719
346.188	192.062
349.081	1091.19
351.974	1670.72
354.866	1965.28
357.759	1134
360.652	732.656
363.544	12.3125
366.437	352.438
369.33	13.1875
372.223	791.25
375.115	1535.22
378.008	1568.75
380.901	1408.25
383.793	1103.06
386.686	2006.72
389.579	3051.12
392.471	3264.47
395.364	2893.91
398.257	2378.34
401.15	2724.09
404.042	3066.56
406.935	2679.41
409.828	2767.78
412.72	3415.75
415.613	3880.56
418.506	4434.72
421.398	4176.59
424.291	3717.28
427.184	2960.41
430.077	3295.19
432.969	3521.72
435.862	3018.58
438.755	2995.34
441.647	3140.89
444.54	2849.31
447.433	2740.38
450.326	2079.17
453.218	1979.11
456.111	1811.03
459.004	1418.98
461.896	619.75
464.789	679.391
467.682	1023.94
470.574	1297.72
473.467	1633.12
476.36	952.875
479.253	185.375
482.145	335.5
485.038	1632.64
487.931	1863.36
490.823	999.031
493.716	343.609
496.609	83.4219
499.501	362.016
502.394	69.6562
505.287	102.141
508.18	451.047
511.072	951.219
513.965	615.469
516.858	1141.25
519.75	1652.89
522.643	2244.47
525.536	2110.8
528.429	2138.5
531.321	2019.55
534.214	1361.36
537.107	621.594
539.999	567.547
542.892	1410.5
545.785	2197.05
548.677	1939.73
551.57	1777.55
554.463	1220.36
557.356	754.328
560.248	424.609
563.141	336.531
566.034	930.922
568.926	1194.94
571.819	1379.5
574.712	1146.53
577.604	799.031
580.497	263.516
583.39	621.719
586.282	865.75
589.175	904.469
592.068	1114.89
594.961	861.766
597.853	157.281
600.746	105.672
603.639	534.562
606.531	1047.12
609.424	1045.88
612.317	1420.75
615.209	1211.62
618.102	1009.41
620.995	1352
623.888	1618.38
626.78	2137.06
629.673	1484.42
632.566	877.188
635.458	209.984
638.351	354.625
641.244	203.172
644.137	189.062
647.029	427.844
649.922	1220.62
652.815	2113.12
655.707	1476.02
658.6	1568.25
661.493	1266.81
664.385	710.25
667.278	963.406
670.171	1198.78
673.064	1413.34
675.956	497.781
678.849	98.0781
681.742	368.984
684.634	1039.7
687.527	1261.23
690.42	879.391
693.312	1152.25
696.205	1242.17
699.098	831.25
701.991	75.3594
704.883	38.0312
707.776	50.5
710.669	80.7812
713.561	177.969
716.454	598.375
719.347	840.172
722.24	788.25
725.132	1374.89
728.025	1078.91
730.918	788.344
733.81	573.047
736.703	513.75
739.596	214.828
742.489	452.891
745.381	1213.05
748.274	1604.56
751.167	1153.19
754.059	434.562
756.952	861.969
759.845	451.094
762.737	380.547
765.63	63.7656
768.523	449.328
771.416	1250.09
774.308	1234.83
777.201	838.625
780.094	876.453
782.986	1537.75
785.879	2062.47
788.772	2737.94
791.664	3832.38
794.557	6190.64
797.45	7670.38
800.343	9555.55
803.235	11866.5
806.128	14293.4
809.021	14795.3
811.913	12623.6
814.806	8617.77
817.699	5477.97
820.591	3331.47
823.484	2243.11
826.377	1902.59
829.269	1648.22
832.162	1396.23
835.055	829.203
837.948	926.734
840.84	1070.84
843.733	597.188
846.626	1030.64
849.518	631.062
852.411	538.75
855.304	157.938
858.196	94.0469
861.089	1126.08
863.982	694.266
866.875	751.188
869.767	148.625
872.66	128.641
875.553	243.422
878.445	468.766
881.338	735.734
884.231	549.156
887.123	1187.05
890.016	944.906
892.909	2015.53
895.802	2301.48
898.694	2436.81
901.587	1611.47
904.48	760.312
907.372	687.375
910.265	678.578
913.158	612.562
916.05	94.9219
918.943	1.98438
921.836	438.047
924.729	1345.41
927.621	1680.58
930.514	1664.14
933.407	1495.42
936.299	776.953
939.192	1000.73
942.085	852.391
944.978	338.562
947.87	419.344
950.763	0.390625
953.656	171.609
956.548	309.859
959.441	406.062
962.334	676.531
965.227	1065.91
968.119	223.594
971.012	647.531
973.905	313.469
976.797	600.656
979.69	611
982.583	615.828
985.475	809.125
988.368	273.875
991.261	387.062
994.154	703.562
997.046	973.234
999.939	1304.64
1002.83	1764.44
1005.72	1455.72
1008.62	1055.52
1011.51	564.875
1014.4	557.25
1017.29	366.859
1020.19	256.547
1023.08	179.062
1025.97	804.438
1028.87	903.375
1031.76	945.141
1034.65	488.953
1037.54	1162.17
1040.44	1440.88
1043.33	872.609
1046.22	151.609
1049.12	144.766
1052.01	878.625
1054.9	1048.98
1057.79	1667.62
1060.69	1115.14
1063.58	524.922
1066.47	205.125
1069.36	81.6562
1072.26	178.719
1075.15	600.141
1078.04	332.875
1080.93	219.016
1083.83	132.578
1086.72	608.969
1089.61	585.891
1092.51	572.297
1095.4	1230.44
1098.29	1289.61
1101.18	1312.12
1104.08	970.469
1106.97	1123.94
1109.86	1018.78
1112.75	547.891
1115.65	321.797
1118.54	408.484
1121.43	253.641
1124.33	233.625
1127.22	433.047
1130.11	898.484
1133	1344.22
1135.9	1243.05
1138.79	840.844
1141.68	697.719
1144.57	631.922
1147.47	300.953
1150.36	293.125
1153.25	874.594
1156.14	1234.84
1159.04	1107.59
1161.93	984.312
1164.82	571.172
1167.72	217.016
1170.61	108.984
1173.5	532.25
1176.39	889.656
1179.29	920.875
1182.18	1182.91
1185.07	1394.25
1187.96	1297.78
1190.86	766.547
1193.75	364.531
1196.64	468.938
1199.54	294.875
1202.43	107.031
1205.32	40.9844
1208.21	428.375
1211.11	650.516
1214	809.281
1216.89	274.281
1219.78	40.0312
1222.68	64.1875
1225.57	150.609
1228.46	376.188
1231.36	577.484
1234.25	546.156
1237.14	518.438
1240.03	578.859
1242.93	359.688
1245.82	630.453
1248.71	641.688
1251.6	65.5938
1254.5	24.5625
