Measurement: Raman, 532 nm, unoriented, Raman Data Processed
Mineral: Piemontite
Rruff sample: R061119
Ideal chemistry: Ca_2_Mn^3+^Al_2_(Si_2_O_7_)(SiO_4_)O(OH)
Locality: Muramatsu mine, Kinkai, Nagasaki, Japan
Source: Michael Scott
Description: Red elongated prismatic crystals
Measured chemistry: (Ca_1.96_Mn^2+^_0.04_)_Σ=2_(Mn^3+^_0.64_Fe^3+^_0.36_)_Σ=1_Al_2.00_(Si_2.00_O_7_)(Si_1.00_O_4_)O(OH); OH assumed by stoichiometry; Mn^2+^ and  Mn^3+^ splitted by charge balance
Raman shift (cm-1)	intensity
202.078	0
204.971	42.2154
207.864	18.4106
210.756	17.8714
213.649	38.6547
216.542	13.3337
219.434	19.7643
222.327	22.6683
225.22	26.0079
228.113	71.0883
231.005	97.2004
233.898	102.278
236.791	114.324
239.683	107.146
242.576	94.6774
245.469	71.1652
248.361	18.2637
251.254	40.6684
254.147	45.5587
257.039	19.66
259.932	56.9453
262.825	45.3762
265.718	38.6246
268.61	45.947
271.503	45.7573
274.396	56.0229
277.288	29.577
280.181	16.9547
283.074	30.8876
285.966	42.7279
288.859	46.5563
291.752	72.3591
294.645	86.8456
297.537	117.158
300.43	125.164
303.323	184.233
306.215	196.589
309.108	191.095
312.001	206.68
314.893	159.336
317.786	169.541
320.679	101.787
323.572	103.153
326.464	64.5195
329.357	18.7401
332.25	8.1366
335.142	5.44794
338.035	4.4184
340.928	22.7379
343.82	55.6853
346.713	91.288
349.606	115.224
352.498	183.268
355.391	243.347
358.284	268.525
361.177	325.248
364.069	354.062
366.962	339.288
369.855	323.601
372.747	253.675
375.64	171.37
378.533	165.807
381.425	162.645
384.318	155.176
387.211	164.567
390.104	142.19
392.996	50.104
395.889	17.0952
398.782	22.3929
401.674	18.677
404.567	0.850403
407.46	35.961
410.352	97.6687
413.245	145.298
416.138	247.104
419.031	281.062
421.923	346.909
424.816	347.469
427.709	352.104
430.601	360.872
433.494	396.337
436.387	421.503
439.279	381.695
442.172	315.119
445.065	302.738
447.957	321.078
450.85	361.934
453.743	378.112
456.636	444.748
459.528	460.713
462.421	498.087
465.314	476.403
468.206	412.238
471.099	313.954
473.992	248.963
476.885	209.613
479.777	162.402
482.67	132.158
485.563	121.936
488.455	136.533
491.348	166.737
494.241	175.647
497.133	210.344
500.026	184.618
502.919	193.648
505.812	155.801
508.704	126.803
511.597	77.2406
514.49	74.2633
517.382	45.9805
520.275	23.9687
523.168	33.7057
526.06	2.29816
528.953	15.6174
531.846	27.2774
534.739	31.039
537.631	16.3549
540.524	1.2406
543.417	30.5823
546.309	72.6451
549.202	110.272
552.095	186.86
554.987	237.545
557.88	327.119
560.773	367.653
563.665	332.361
566.558	223.767
569.451	192.61
572.344	167.943
575.236	222.893
578.129	245.218
581.022	271.197
583.914	303.522
586.807	295.108
589.7	265.082
592.592	233.13
595.485	194.278
598.378	128.677
601.27	99.7628
604.163	110.641
607.056	52.7379
609.949	61.6865
612.841	75.5677
615.734	48.7996
618.627	53.7282
621.519	57.1837
624.412	66.4918
627.305	78.3137
630.197	75.4571
633.09	71.8596
635.983	72.4499
638.876	82.256
641.768	68.6624
644.661	65.2327
647.554	73.7779
650.446	51.432
653.339	37.2718
656.232	18.4357
659.125	1.88519
662.017	36.6802
664.91	11.8413
667.803	21.2568
670.695	3.8418
673.588	18.968
676.481	4.80658
679.373	13.1677
682.266	9.15955
685.159	57.1343
688.052	17.0899
690.944	27.5668
693.837	6.85059
696.73	43.3646
699.622	1.46985
702.515	5.125
705.408	13.166
708.3	28.9403
711.193	7.87665
714.086	10.145
716.979	25.2492
719.871	15.6014
722.764	28.4311
725.657	6.05469
728.549	45.7081
731.442	14.9014
734.335	30.019
737.227	34.734
740.12	28.5131
743.013	39.681
745.905	22.0414
748.798	32.7648
751.691	47.004
754.583	38.767
757.476	54.5242
760.369	42.3124
763.262	14.4469
766.154	58.402
769.047	22.2033
771.94	26.9927
774.832	27.5651
777.725	24.5292
780.618	17.5501
783.51	0.482727
786.403	10.7685
789.296	12.5428
792.189	14.8431
795.081	22.8545
797.974	4.9613
800.867	19.665
803.759	6.48071
806.652	8.66504
809.545	29.0969
812.437	25.8097
815.33	15.7554
818.223	31.0693
821.115	64.8592
824.008	62.51
826.901	60.5166
829.794	55.929
832.686	77.6579
835.579	90.1532
838.472	80.2591
841.364	84.4191
844.257	96.2236
847.15	91.2264
850.043	111.239
852.935	94.6119
855.828	58.7792
858.721	81.4008
861.613	72.726
864.506	58.7088
867.399	87.1265
870.291	79.5546
873.184	167.727
876.077	187.661
878.97	181.62
881.862	227.237
884.755	205.009
887.648	228.108
890.54	249.689
893.433	222.091
896.326	299.089
899.218	329.003
902.111	417.178
905.004	503.1
907.896	509.707
910.789	564.766
913.682	585.301
916.575	565.75
919.467	506.042
922.36	380.092
925.253	305.588
928.145	188.972
931.038	92.0725
933.931	103.255
936.823	42.8075
939.716	0.837524
942.609	1.0885
945.502	31.8345
948.394	15.9252
951.287	17.3541
954.18	17.0734
957.072	24.7378
959.965	47.4575
962.858	32.6105
965.75	45.3168
968.643	84.8611
971.536	131.227
974.428	137.201
977.321	126.832
980.214	108.407
983.107	40.7341
985.999	41.1301
988.892	21.6962
991.785	14.7656
994.677	16.3403
997.57	42.1381
1000.46	20.1746
1003.36	5.07336
1006.25	22.0961
1009.14	43.5981
1012.03	26.7372
1014.93	29.4632
1017.82	34.1295
1020.71	105.842
1023.6	126.25
1026.5	126.874
1029.39	139.437
1032.28	141.613
1035.17	127.532
1038.07	94.6485
1040.96	108.904
1043.85	131.784
1046.75	109.925
1049.64	77.6155
1052.53	96.698
1055.42	97.8844
1058.32	55.615
1061.21	42.835
1064.1	41.1961
1066.99	52.455
1069.89	47.0972
1072.78	86.2618
1075.67	109.969
1078.57	121.554
1081.46	106.811
1084.35	105.534
1087.24	95.2933
1090.14	65.3138
1093.03	70.0795
1095.92	54.2554
1098.82	13.4474
1101.71	11.3388
1104.6	17.2024
1107.49	21.5038
1110.38	23.8849
1113.28	9.70581
1116.17	2.2713
1119.06	7.55975
1121.96	38.6087
1124.85	46.497
1127.74	0.863647
1130.63	33.7056
1133.53	13.3679
1136.42	5.48901
1139.31	11.239
1142.2	25.8947
1145.1	23.6545
1147.99	31.5356
1150.88	40.2538
1153.78	26.1343
1156.67	13.459
1159.56	24.7191
1162.45	8.61145
1165.35	32.8846
1168.24	20.9537
1171.13	43.3657
1174.03	16.7728
1176.92	10.0446
1179.81	28.2788
1182.7	7.38013
1185.6	25.6183
1188.49	11.1285
1191.38	36.1584
1194.27	20.2633
1197.17	37.3704
1200.06	54.7311
1202.95	7.92059
1205.84	14.7135
1208.74	48.1575
1211.63	57.9318
1214.52	48.7488
1217.41	28.0996
1220.31	1.88373
1223.2	49.1493
1226.09	31.9048
1228.99	43.2869
1231.88	37.1007
1234.77	47.8422
1237.66	0.844482
1240.56	30.3807
1243.45	28.4923
1246.34	65.4522
1249.23	42.0638
1252.13	32.218
1255.02	54.1732
1257.91	31.5025
1260.81	27.0151
1263.7	31.3347
1266.59	0.74939
