Measurement: Raman, 532 nm, unoriented, Raman Data Processed
Mineral: Piemontite
Rruff sample: R060905
Ideal chemistry: Ca_2_Mn^3+^Al_2_(Si_2_O_7_)(SiO_4_)O(OH)
Locality: Praborna mine, Aosta Valley, St. Marcel, Italy
Source: Michael Scott
Description: Elongated purple single crystals associated with albite and romeite, R060323
Measured chemistry: (Ca_1.82_Mn^2+^_0.12_)_Σ=2_(Al_1.95_Mn^3+^_0.97_Fe^3+^_0.08_)_Σ=3_[Si_2.00_O_7_][Si_1.00_O_4_]O(OH) ; = lighter phase, and the darker phase is albite.
Raman shift (cm-1)	intensity
226.142	0
229.035	15.7224
231.928	24.1288
234.82	40.8107
237.713	49.0846
240.606	11.2928
243.498	31.1443
246.391	25.9363
249.284	21.2551
252.177	25.3517
255.069	5.25171
257.962	15.2862
260.855	16.4292
263.747	37.2032
266.64	15.3776
269.533	0.893127
272.425	28.2242
275.318	11.5893
278.211	1.65979
281.103	29.641
283.996	4.24029
286.889	6.59912
289.782	3.63489
292.674	41.967
295.567	56.4681
298.46	54.1638
301.352	79.6296
304.245	116.836
307.138	130.712
310.031	129.633
312.923	80.695
315.816	89.7151
318.709	75.0965
321.601	39.2184
324.494	49.0637
327.387	37.9284
330.279	20.0192
333.172	4.39764
336.065	0.683899
338.957	29.403
341.85	18.8077
344.743	8.53186
347.635	31.6158
350.528	27.1949
353.421	57.3662
356.314	76.8274
359.206	86.1657
362.099	103.039
364.992	146.059
367.884	138.701
370.777	131.255
373.67	94.4084
376.562	77.2148
379.455	50.8272
382.348	47.1534
385.241	27.7291
388.133	57.4802
391.026	25.3049
393.919	2.43323
396.811	7.11664
399.704	6.89081
402.597	19.7523
405.49	8.56622
408.382	1.349
411.275	21.0031
414.168	6.52502
417.06	78.8129
419.953	66.0424
422.846	71.1312
425.738	91.2095
428.631	142.354
431.524	144.219
434.416	168.483
437.309	219.665
440.202	194.124
443.094	151.603
445.987	120.631
448.88	110.994
451.773	87.1891
454.665	117.087
457.558	115.372
460.451	133.767
463.343	152.328
466.236	202.958
469.129	229.326
472.022	227.108
474.914	189.256
477.807	158.556
480.7	109.077
483.592	51.1076
486.485	57.1169
489.378	46.294
492.27	29.4617
495.163	31.7689
498.056	38.9837
500.949	27.3041
503.841	23.6073
506.734	43.0219
509.627	37.1385
512.519	13.4172
515.412	2.5929
518.305	25.234
521.197	29.2244
524.09	30.5408
526.983	27.2847
529.875	40.8945
532.768	26.675
535.661	4.83746
538.554	30.5786
541.446	7.74005
544.339	45.9093
547.232	36.0081
550.124	57.406
553.017	98.6542
555.91	124.513
558.802	163.156
561.695	210.92
564.588	175.704
567.481	142.17
570.373	103.546
573.266	121.166
576.159	127.138
579.051	152.339
581.944	165.924
584.837	152.068
587.729	103.844
590.622	89.5338
593.515	75.6946
596.408	67.5362
599.3	4.73407
602.193	14.2311
605.086	44.9475
607.978	8.39624
610.871	0.441772
613.764	39.1859
616.656	37.782
619.549	27.521
622.442	24.1962
625.335	14.999
628.227	39.2549
631.12	38.0612
634.013	55.9254
636.905	73.3434
639.798	70.8233
642.691	78.1785
645.583	77.9142
648.476	35.3444
651.369	45.9456
654.261	63.2091
657.154	37.313
660.047	37.6739
662.94	2.92725
665.832	10.2317
668.725	16.2484
671.618	1.94452
674.51	4.53253
677.403	18.5455
680.296	2.28082
683.188	11.5005
686.081	27.1396
688.974	2.27539
691.866	20.4601
694.759	8.43018
697.652	23.5418
700.545	5.36499
703.437	26.4022
706.33	15.5124
709.223	6.4104
712.115	8.39062
715.008	39.2304
717.901	16.5656
720.793	21.8231
723.686	27.8183
726.579	19.057
729.472	14.3482
732.364	2.38031
735.257	28.9168
738.15	24.7082
741.042	6.90308
743.935	23.1401
746.828	22.585
749.721	31.618
752.613	12.6214
755.506	27.1546
758.399	34.7418
761.291	42.4479
764.184	29.1893
767.077	27.0198
769.969	11.1875
772.862	3.44421
775.755	29.0297
778.648	18.6352
781.54	1.00952
784.433	27.7648
787.326	9.98822
790.218	14.7739
793.111	3.69665
796.004	38.4046
798.896	29.4109
801.789	26.7167
804.682	30.7916
807.574	17.7674
810.467	14.3908
813.36	53.8828
816.253	28.0426
819.145	33.0915
822.038	28.398
824.931	28.6069
827.823	51.842
830.716	51.5977
833.609	45.1773
836.501	21.1861
839.394	23.5236
842.287	5.69952
845.179	21.2734
848.072	11.9055
850.965	18.3032
853.858	4.20355
856.75	8.22986
859.643	4.64911
862.536	0.592834
865.428	9.36011
868.321	14.7892
871.214	6.85394
874.106	33.1634
876.999	31.7283
879.892	52.7828
882.784	41.6754
885.677	58.6517
888.57	69.1567
891.463	97.2615
894.355	102.16
897.248	118.655
900.141	111.225
903.033	136.77
905.926	137.043
908.819	143.097
911.712	162.212
914.604	158.734
917.497	185.689
920.39	208.907
923.282	232.577
926.175	164.97
929.068	121.828
931.96	127.78
934.853	44.9139
937.746	34.413
940.639	51.8609
943.531	23.3262
946.424	13.3907
949.317	16.0642
952.209	29.752
955.102	16.8876
957.995	27.8345
960.887	7.99744
963.78	8.31146
966.673	4.09332
969.566	22.587
972.458	14.0175
975.351	46.418
978.244	43.0564
981.136	35.9997
984.029	38.2278
986.922	8.62787
989.814	19.8939
992.707	29.6992
995.6	0.550293
998.492	0.044495
1001.38	10.5945
1004.28	12.7892
1007.17	1.87152
1010.06	33.1166
1012.96	31.2684
1015.85	4.82947
1018.74	24.188
1021.63	23.7904
1024.53	33.9069
1027.42	60.1187
1030.31	46.8845
1033.2	14.2832
1036.1	69.0987
1038.99	40.5013
1041.88	54.7915
1044.78	26.0764
1047.67	26.9273
1050.56	41.6504
1053.45	27.928
1056.35	53.0222
1059.24	17.5289
1062.13	24.8248
1065.03	0.702454
1067.92	19.273
1070.81	27.8914
1073.7	21.9474
1076.6	30.0007
1079.49	41.4621
1082.38	29.6303
1085.27	39.4103
1088.17	44.3293
1091.06	14.9414
1093.95	9.9043
1096.84	5.64618
1099.74	32.6329
1102.63	7.19501
1105.52	22.2944
1108.41	23.3243
1111.31	26.5667
1114.2	24.0241
1117.09	28.9135
1119.99	21.2935
1122.88	19.1776
1125.77	3.12958
1128.66	35.6785
1131.56	13.2445
1134.45	38.1212
1137.34	30.9495
1140.23	29.5554
1143.13	2.25684
1146.02	9.00317
1148.91	16.6077
1151.81	7.81531
1154.7	14.066
1157.59	20.0507
1160.48	13.8693
1163.38	10.7756
1166.27	0.014343
1169.16	30.4062
1172.05	43.5499
1174.95	0.730225
1177.84	14.033
1180.73	23.7049
1183.62	18.2236
1186.52	30.6243
1189.41	12.1085
1192.3	17.5071
1195.2	34.1899
1198.09	32.2405
1200.98	20.4551
1203.87	38.3563
1206.77	16.4031
1209.66	16.1479
1212.55	37.9386
1215.44	13.4625
1218.34	13.2107
1221.23	19.9873
1224.12	0.677979
1227.02	17.6777
1229.91	18.4992
1232.8	41.9744
1235.69	32.681
1238.59	3.98224
1241.48	17.8982
1244.37	14.7225
1247.26	27.0825
1250.16	8.95563
1253.05	33.1991
1255.94	33.4795
1258.84	14.0741
1261.73	4.08496
