Measurement: Raman, 532 nm, unoriented, Raman Data Processed
Mineral: Pinakiolite
Rruff sample: R050636
Ideal chemistry: (Mg,Mn^2+^)_2_(Mn^3+^,Sb^5+^)O_2_(BO_3_)
Locality: Langban, Filipstad, Varmland, Sweden
Source: University of Arizona Mineral Museum
Description: Dark-grey crystals embedded into matrix of calcite, dolomite and tephroite
Raman shift (cm-1)	intensity
150.528	0
153.421	5.96242
156.314	3.9442
159.207	3.58712
162.099	4.98579
164.992	5.15533
167.885	2.08523
170.777	3.81398
173.67	5.3534
176.563	0.236153
179.455	1.6169
182.348	2.10014
185.241	4.10067
188.133	3.65233
191.026	4.33442
193.919	5.0291
196.812	7.00178
199.704	2.63958
202.597	5.88332
205.49	3.76524
208.382	3.83736
211.275	1.80407
214.168	1.75276
217.06	2.80644
219.953	1.22948
222.846	2.80011
225.739	0.502647
228.631	1.81026
231.524	0.144875
234.417	2.21561
237.309	1.16028
240.202	4.22019
243.095	4.17801
245.988	3.79092
248.88	7.02652
251.773	7.9859
254.666	9.08698
257.558	11.2356
260.451	13.7791
263.344	15.882
266.236	17.9237
269.129	20.8619
272.022	23.3207
274.915	19.7558
277.807	25.355
280.7	25.9455
283.593	19.6792
286.485	21.1525
289.378	18.9665
292.271	18.1838
295.163	16.1523
298.056	17.2075
300.949	14.8099
303.842	15.6958
306.734	15.6294
309.627	16.1037
312.52	16.6327
315.412	18.6118
318.305	18.7681
321.198	19.8448
324.091	21.9176
326.983	20.6225
329.876	19.5083
332.769	15.4842
335.661	11.5537
338.554	11.0334
341.447	9.63982
344.339	4.95948
347.232	6.58621
350.125	8.3269
353.018	6.14897
355.91	5.83161
358.803	5.73338
361.696	1.57092
364.588	5.55856
367.481	1.99126
370.374	0.2789
373.267	1.44515
376.159	1.67324
379.052	1.15148
381.945	0.937271
384.837	0.472626
387.73	2.89787
390.623	6.00408
393.515	7.44327
396.408	4.91976
399.301	6.54134
402.194	6.23158
405.086	6.05549
407.979	6.62739
410.872	8.64742
413.764	10.4435
416.657	12.1827
419.55	16.3077
422.442	20.6031
425.335	22.9455
428.228	25.1256
431.121	24.5726
434.013	25.0779
436.906	28.72
439.799	29.5601
442.691	31.4551
445.584	35.7474
448.477	35.6435
451.37	34.9251
454.262	32.5697
457.155	29.3274
460.048	26.9786
462.94	22.9174
465.833	19.7669
468.726	21.9023
471.618	22.0277
474.511	17.6988
477.404	14.3735
480.297	12.9374
483.189	9.57194
486.082	7.01274
488.975	4.19337
491.867	6.0723
494.76	1.98723
497.653	0.155037
500.546	0.244095
503.438	1.64899
506.331	1.73638
509.224	5.22321
512.116	3.84148
515.009	5.74461
517.902	8.71071
520.794	6.91577
523.687	3.34871
526.58	5.33044
529.472	4.57468
532.365	4.5981
535.258	5.92241
538.151	6.55069
541.043	0.939316
543.936	1.63597
546.829	2.38341
549.721	2.16666
552.614	0.365463
555.507	1.39825
558.399	4.23431
561.292	6.52875
564.185	7.0061
567.078	3.38243
569.97	0.401337
572.863	6.18085
575.756	14.3891
578.649	23.8551
581.541	35.2458
584.434	42.163
587.327	60.2027
590.219	71.5867
593.112	85.6113
596.005	97.5219
598.897	111.766
601.79	129.172
604.683	138.019
607.576	154.254
610.468	165.078
613.361	173.899
616.254	181.074
619.146	194.927
622.039	207.832
624.932	218.169
627.824	230.887
630.717	246.887
633.61	257.828
636.503	268.716
639.395	279.702
642.288	283.792
645.181	285.043
648.073	285.509
650.966	277.228
653.859	268.815
656.751	255.175
659.644	241.084
662.537	215.712
665.43	197.339
668.322	181.363
671.215	171.524
674.108	167.489
677	170.103
679.893	177.032
682.786	181.882
685.678	190.547
688.571	191.757
691.464	192.096
694.357	183.289
697.249	161.689
700.142	129.447
703.035	98.4915
705.927	68.316
708.82	47.0814
711.713	26.7433
714.606	12.1069
717.498	6.3315
720.391	0.636642
723.284	1.38269
726.176	4.4635
729.069	4.99057
731.962	4.59515
734.855	3.7329
737.747	1.89854
740.64	0.446075
743.533	0.98069
746.425	2.2505
749.318	2.70792
752.211	5.44694
755.103	9.072
757.996	9.55977
760.889	13.6836
763.782	15.4806
766.674	16.6125
769.567	18.1309
772.46	17.5926
775.352	20.5129
778.245	21.3348
781.138	20.97
784.03	20.21
786.923	17.6275
789.816	16.7265
792.709	15.4876
795.601	15.2014
798.494	11.2432
801.387	9.14963
804.279	9.78556
807.172	9.99925
810.065	8.85995
812.957	7.30701
815.85	6.26053
818.743	8.89391
821.636	6.11795
824.528	8.69596
827.421	5.60213
830.314	2.98808
833.206	5.98492
836.099	4.36327
838.992	3.61062
841.885	3.30514
844.777	5.75523
847.67	4.6395
850.563	4.93598
853.455	2.65197
856.348	5.1441
859.241	2.25248
862.134	1.09115
865.026	2.17025
867.919	2.78488
870.812	0.336288
873.704	2.29018
876.597	1.80299
879.49	1.21534
882.382	2.60393
885.275	3.38483
888.168	0.833603
891.061	0.903946
893.953	0.676079
896.846	1.28471
899.739	0.219902
902.631	0.131546
905.524	0.755013
908.417	0.972824
911.309	1.77599
914.202	1.41801
917.095	4.60167
919.987	3.1804
922.88	4.77722
925.773	3.1517
928.666	3.87951
931.558	3.76063
934.451	4.15601
937.344	3.54157
940.236	4.76684
943.129	2.26565
946.022	4.44435
948.915	2.79639
951.807	3.88128
954.7	3.39738
957.593	3.73464
960.485	2.63995
963.378	1.46196
966.271	1.21742
969.163	3.04163
972.056	0.722099
974.949	3.69044
977.842	1.55837
980.734	2.0493
983.627	1.49953
986.52	1.44892
989.412	2.22571
992.305	1.26625
995.198	1.62376
998.091	1.83903
1000.98	1.36327
1003.88	2.06426
1006.77	1.42812
1009.66	1.00383
1012.55	2.21889
1015.45	1.88319
1018.34	1.8886
1021.23	2.78957
1024.12	3.61634
1027.02	1.05215
1029.91	3.13935
1032.8	3.17468
1035.7	3.72317
1038.59	1.37335
1041.48	2.42957
1044.37	2.74684
1047.27	3.42146
1050.16	3.69247
1053.05	4.69721
1055.94	2.31476
1058.84	1.23597
1061.73	2.11172
1064.62	3.14018
1067.52	2.51398
1070.41	3.63912
1073.3	1.72229
1076.19	0.803261
1079.09	0.095253
1081.98	0.029243
1084.87	0.887177
1087.76	1.25127
1090.66	2.31441
1093.55	0.420242
1096.44	1.27148
1099.34	0.153015
1102.23	0.527893
1105.12	2.324
1108.01	0.081825
1110.91	1.84235
1113.8	1.4546
1116.69	0.017105
1119.58	0.241539
1122.48	0.285759
1125.37	1.86864
1128.26	0.742989
1131.15	2.96548
1134.05	3.12175
1136.94	2.54974
1139.83	1.85503
1142.73	2.90066
1145.62	4.10284
1148.51	4.45059
1151.4	3.63427
1154.3	2.9701
1157.19	1.68345
1160.08	3.81108
1162.97	2.76531
1165.87	2.77241
1168.76	2.92265
1171.65	4.15723
1174.55	6.62494
1177.44	5.17593
1180.33	3.92772
1183.22	5.03692
1186.12	5.68511
1189.01	4.99573
1191.9	4.52386
1194.79	7.72936
1197.69	6.02724
1200.58	5.46587
1203.47	7.74328
1206.37	7.73345
1209.26	6.62762
1212.15	8.4465
1215.04	7.28122
1217.94	6.21401
1220.83	6.62924
1223.72	9.83634
1226.61	6.30245
1229.51	6.96503
1232.4	9.24673
1235.29	7.96813
1238.18	6.10334
1241.08	7.81297
1243.97	6.30879
1246.86	5.5788
1249.76	6.029
1252.65	8.58418
1255.54	8.15961
1258.43	4.50091
1261.33	4.74707
1264.22	7.40025
1267.11	6.65292
1270.01	4.94786
1272.9	3.86452
1275.79	3.86657
1278.68	1.82538
1281.58	2.53513
1284.47	2.48323
1287.36	0.135468
1290.25	1.55789
1293.15	0.2342
1296.04	1.54701
1298.93	0.077965
1301.82	0
