Measurement: Raman, 785 nm, unoriented, Raman Data Processed
Mineral: Pirssonite
Rruff sample: R070192
Ideal chemistry: Na_2_Ca(CO_3_)_2_2H_2_O
Locality: Natrum, Sahara, Egypt
Source: Renato and Adriana Pagano
Description: Colorless transparent hemimorphic tabular crystals
Raman shift (cm-1)	intensity
229.304	0
232.196	67.3086
235.089	26.3887
237.982	13.5801
240.874	186.432
243.767	198.228
246.66	190.91
249.553	78.666
252.445	111.041
255.338	214.914
258.231	164.328
261.123	214.738
264.016	197.934
266.909	149.857
269.801	183.486
272.694	144.164
275.587	122.824
278.479	122.371
281.372	254.072
284.265	241.385
287.158	221.541
290.05	296.703
292.943	118.293
295.836	150.844
298.728	12.3398
301.621	116.887
304.514	206.344
307.406	128.084
310.299	166.111
313.192	230.353
316.085	94.3281
318.977	138.588
321.87	15.1543
324.763	118.037
327.655	136.894
330.548	187.234
333.441	174.809
336.334	139.959
339.226	54.6387
342.119	2.5293
345.012	23.1406
347.904	84.3769
350.797	81.9121
353.69	198.522
356.582	177.025
359.475	28.3965
362.368	3.05273
365.26	7.375
368.153	53.0469
371.046	12.6191
373.939	115.211
376.831	155.857
379.724	115.043
382.617	152.359
385.509	39.8027
388.402	15.1406
391.295	11.6797
394.188	134.918
397.08	71.2363
399.973	189.404
402.866	189.315
405.758	51.4316
408.651	57.5684
411.544	37.1641
414.436	45.291
417.329	152.141
420.222	70.1445
423.115	104.814
426.007	60.7773
428.9	18.3066
431.793	4.50195
434.685	9.65625
437.578	27.3105
440.471	74.7168
443.363	102.225
446.256	132.982
449.149	94.6309
452.041	99.0606
454.934	95.25
457.827	62.8711
460.72	11.6348
463.612	135.928
466.505	83.3516
469.398	73.2656
472.29	104.303
475.183	102.506
478.076	33.2031
480.969	20.6504
483.861	25.8789
486.754	103.906
489.647	123.385
492.539	211.5
495.432	170.057
498.325	102.898
501.217	144.551
504.11	126.803
507.003	118.397
509.896	164.377
512.788	146.252
515.681	124.658
518.574	115.615
521.466	34.1582
524.359	12.6914
527.252	73.0215
530.144	77.0176
533.037	88.7519
535.93	88.4356
538.822	89.2051
541.715	183.981
544.608	55.5215
547.501	62.9219
550.393	54.4648
553.286	109.609
556.179	101.471
559.071	139.527
561.964	51.9395
564.857	149.588
567.75	124.686
570.642	41.2988
573.535	26.2148
576.428	85.7519
579.32	72.832
582.213	72.8984
585.106	125.557
587.998	136.461
590.891	105.023
593.784	129.098
596.677	105.578
599.569	22.9102
602.462	46.6465
605.355	38.8477
608.247	71.7519
611.14	81.4082
614.033	69.2441
616.925	27.0156
619.818	34.9844
622.711	95.6894
625.604	153.514
628.496	90.9121
631.389	122.67
634.282	76.6113
637.174	120.314
640.067	59.5684
642.96	111.367
645.852	59.7461
648.745	37.4531
651.638	122.504
654.53	58.125
657.423	65.959
660.316	7.63477
663.209	9.32031
666.101	79.1035
668.994	22.9824
671.887	131.46
674.779	62.5459
677.672	10.5049
680.565	8.51562
683.457	22.5234
686.35	29.374
689.243	53.0547
692.136	44.4219
695.028	178.087
697.921	75.6777
700.814	186.509
703.706	58.0166
706.599	184.233
709.492	0.802734
712.385	52.8408
715.277	152.837
718.17	146.026
721.063	16.1416
723.955	61.5772
726.848	138.393
729.741	178.257
732.633	49.7598
735.526	126.484
738.419	25.0459
741.312	45.7881
744.204	136.181
747.097	155.698
749.99	100.881
752.882	102.059
755.775	41.4522
758.668	114.004
761.56	67.251
764.453	101.597
767.346	161.068
770.239	177.131
773.131	111.949
776.024	84.7988
778.917	121.485
781.809	61.7685
784.702	75.4522
787.595	43.5781
790.487	161.474
793.38	66.1592
796.273	103.031
799.165	144.265
802.058	5.61133
804.951	53.873
807.844	75.1924
810.736	81.4189
813.629	18.3701
816.522	42.8145
819.414	32.8457
822.307	48.7861
825.2	2.69531
828.092	32.6709
830.985	54.3496
833.878	42.0557
836.771	93.2939
839.663	149.966
842.556	39.416
845.449	94.8574
848.341	51.8565
851.234	21.043
854.127	20.5635
857.019	57.2236
859.912	65.6055
862.805	69.7344
865.698	20.0664
868.59	35.8906
871.483	60.6846
874.376	81.0527
877.268	135.796
880.161	86.6035
883.054	4.79004
885.947	105.975
888.839	122.196
891.732	28.5879
894.625	82.5576
897.517	27.7588
900.41	105.791
903.303	78.7109
906.195	121.173
909.088	77.708
911.981	88.1436
914.874	75.9434
917.766	62.4815
920.659	25.5654
923.552	31.3809
926.444	33.4883
929.337	71.2344
932.23	93.1484
935.122	109.305
938.015	77.3916
940.908	20.3135
943.801	123.452
946.693	126.669
949.586	129.266
952.479	73.8008
955.371	101.329
958.264	67.9424
961.157	48.9463
964.049	106.293
966.942	73.8828
969.835	53.4053
972.727	140.718
975.62	29.5615
978.513	75.4268
981.406	30.0225
984.298	19.0938
987.191	63.5898
990.084	60.332
992.976	67.415
995.869	82.335
998.762	7.9082
1001.65	56.5566
1004.55	74.1299
1007.44	195.79
1010.33	20.1777
1013.23	21.5518
1016.12	53.9951
1019.01	70.1953
1021.9	18.4766
1024.8	44.2988
1027.69	116.505
1030.58	72.4297
1033.47	11.21
1036.37	66.2578
1039.26	38.8565
1042.15	31.9199
1045.05	90.9736
1047.94	32.9902
1050.83	8.83496
1053.72	88.7842
1056.62	102.568
1059.51	149.787
1062.4	214.047
1065.29	422.444
1068.19	910.296
1071.08	1241.32
1073.97	428.212
1076.87	145.059
1079.76	105.642
1082.65	110.22
1085.54	93.1777
1088.43	37.5498
1091.33	39.1143
1094.22	61.2188
1097.11	78.5459
1100.01	46.7139
1102.9	49.082
1105.79	17.1641
1108.68	59.249
1111.58	38.9766
1114.47	79.4228
1117.36	14.4248
1120.26	26.6211
1123.15	89.9717
1126.04	69.0117
1128.93	75.4932
1131.83	28.3428
1134.72	79.4561
1137.61	97.2188
1140.5	49.9404
1143.4	109.728
1146.29	82.499
1149.18	88.8672
1152.08	17.2695
1154.97	42.9766
1157.86	73.8076
1160.75	43
1163.65	61.9629
1166.54	93.3584
1169.43	59.4678
1172.32	46.5576
1175.22	56.2432
1178.11	70.4697
1181	164.002
1183.89	102.778
1186.79	67.4492
1189.68	60.3613
1192.57	12.4463
1195.46	91.8467
1198.36	118.787
1201.25	89.4248
1204.14	15.9541
1207.04	99.2559
1209.93	38.2666
1212.82	24.6318
1215.71	6.16992
1218.61	149.474
1221.5	50.4629
1224.39	137.331
1227.29	95.0049
1230.18	104.705
1233.07	13.4619
1235.96	135.152
1238.86	44.3398
1241.75	22.0322
