Measurement: Raman, 780 nm, unoriented, Raman Data Processed
Mineral: Planerite
Rruff sample: R080123
Ideal chemistry: Al_6_(PO_4_)_2_(PO_3_OH)_2_(OH)_8_4H_2_O
Locality: Bruguers, Gav√°, Barcelona, Catalonia, Spain
Source: Joan Abella i Creus
Description: Light green, microcrystalline fragments
Raman shift (cm-1)	intensity
145.074	0
147.967	2.84909
150.859	2.93617
153.752	4.3501
156.645	4.0439
159.538	0.928299
162.43	0.765671
165.323	0.811066
168.216	1.44321
171.108	3.93095
174.001	7.97868
176.894	6.95894
179.786	3.30633
182.679	1.05809
185.572	1.87665
188.465	4.67102
191.357	5.17038
194.25	7.87004
197.143	10.6707
200.035	14.1166
202.928	12.3172
205.821	15.7896
208.714	14.4467
211.606	15.3645
214.499	13.6335
217.392	13.4471
220.284	15.2596
223.177	17.178
226.07	22.3663
228.962	27.3103
231.855	26.5139
234.748	22.9451
237.641	20.5329
240.533	17.447
243.426	15.4571
246.319	10.4063
249.211	8.27684
252.104	5.78522
254.997	2.78943
257.889	1.43822
260.782	0.539856
263.675	3.16054
266.567	1.5379
269.46	0.935593
272.353	0.607224
275.246	1.07972
278.138	1.34238
281.031	2.16927
283.924	1.36092
286.816	5.02738
289.709	3.7352
292.602	5.52897
295.495	8.20731
298.387	8.24949
301.28	9.53593
304.173	10.3453
307.065	11.1538
309.958	12.1032
312.851	16.1821
315.743	20.3425
318.636	23.549
321.529	27.1259
324.421	29.7
327.314	30.6822
330.207	32.8409
333.1	28.781
335.992	26.5583
338.885	23.4025
341.778	14.4893
344.67	14.9466
347.563	10.714
350.456	9.16728
353.349	6.65636
356.241	6.52117
359.134	4.22794
362.027	1.1236
364.919	0.460754
367.812	0.867119
370.705	1.63535
373.597	0.5877
376.49	0.347229
379.383	0.64753
382.276	0.082291
385.168	2.73646
388.061	1.88585
390.954	0.713409
393.846	4.12925
396.739	4.29071
399.632	4.80952
402.524	6.09402
405.417	11.1262
408.31	15.9467
411.202	23.6714
414.095	33.0446
416.988	33.9523
419.881	34.2552
422.773	29.5942
425.666	25.5435
428.559	19.4568
431.451	16.5599
434.344	15.5301
437.237	13.2466
440.13	11.9404
443.022	10.9129
445.915	7.05206
448.808	7.71037
451.7	6.25161
454.593	6.5142
457.486	6.66473
460.378	7.38044
463.271	6.82749
466.164	8.01544
469.057	6.29459
471.949	5.85603
474.842	2.40354
477.735	2.94942
480.627	0.385376
483.52	0.014259
486.413	0.224693
489.305	1.4366
492.198	1.37637
495.091	1.32446
497.983	1.18341
500.876	0.447205
503.769	0.532516
506.662	0.837738
509.554	2.78538
512.447	1.29208
515.34	3.18675
518.232	0.6054
521.125	1.41345
524.018	0.364479
526.91	0.817963
529.803	0.457237
532.696	1.22465
535.589	0.581902
538.481	0.691566
541.374	1.28543
544.267	0.13662
547.159	0.402466
550.052	4.21709
552.945	3.77046
555.837	3.4124
558.73	3.60237
561.623	7.36266
564.516	8.47418
567.408	8.10932
570.301	8.87106
573.194	10.4594
576.086	11.0557
578.979	11.4971
581.872	12.8641
584.764	12.2562
587.657	14.2873
590.55	14.1227
593.443	11.887
596.335	12.39
599.228	11.3744
602.121	9.26098
605.013	9.62967
607.906	7.98984
610.799	10.2175
613.692	9.78027
616.584	12.495
619.477	11.8371
622.37	13.0488
625.262	14.0761
628.155	16.6811
631.048	16.5956
633.94	20.1524
636.833	18.486
639.726	18.8421
642.619	16.0757
645.511	13.9527
648.404	11.0381
651.297	7.90737
654.189	8.50526
657.082	6.20041
659.975	5.10741
662.867	3.46477
665.76	3.98299
668.653	2.23994
671.545	3.05278
674.438	1.50035
677.331	2.10591
680.224	1.69039
683.116	2.36372
686.009	0.618011
688.902	0.202217
691.794	0.39962
694.687	0.581718
697.58	0.071159
700.472	0.232727
703.365	0.626816
706.258	1.06957
709.151	0.242867
712.043	0.56916
714.936	0.085548
717.829	0.213402
720.721	0.787155
723.614	0.481735
726.507	0.075813
729.399	0.776794
732.292	1.13153
735.185	0.811737
738.078	2.08932
740.97	1.61021
743.863	2.54703
746.756	1.14767
749.648	1.63423
752.541	1.25227
755.434	1.7205
758.327	1.55218
761.219	2.23674
764.112	1.2439
767.005	0.233948
769.897	1.12147
772.79	1.07356
775.683	3.11742
778.575	2.22051
781.468	2.92198
784.361	2.78261
787.254	3.84139
790.146	3.5037
793.039	3.36991
795.932	3.43585
798.824	3.22809
801.717	4.06278
804.61	5.25636
807.502	5.39189
810.395	6.29499
813.288	4.61542
816.181	5.6302
819.073	7.07461
821.966	6.55651
824.859	3.02285
827.751	6.10177
830.644	2.10789
833.537	3.61964
836.429	2.01058
839.322	2.2274
842.215	2.98997
845.107	1.99928
848	0.441574
850.893	2.21403
853.786	0.296547
856.678	0.480247
859.571	1.95529
862.464	1.81969
865.356	1.95977
868.249	1.56749
871.142	3.16895
874.034	2.38208
876.927	1.78404
879.82	0.256405
882.713	2.13345
885.605	1.45621
888.498	0.682545
891.391	2.60443
894.283	1.85451
897.176	1.73034
900.069	0.960617
902.962	1.13917
905.854	0.773113
908.747	0.871456
911.64	1.99854
914.532	1.07015
917.425	1.56593
920.318	1.83029
923.21	0.193375
926.103	1.87545
928.996	2.06209
931.888	0.959412
934.781	1.33343
937.674	1.09824
940.567	0.253975
943.459	0.694
946.352	0.936077
949.245	0.829426
952.137	1.17397
955.03	2.19133
957.923	0.066792
960.815	1.99037
963.708	0.019123
966.601	1.25762
969.494	0.928032
972.386	0.871201
975.279	0.025997
978.172	3.34288
981.064	3.2491
983.957	3.60932
986.85	3.24934
989.742	3.36728
992.635	4.24075
995.528	4.18889
998.42	3.47755
1001.31	7.81364
1004.21	5.78196
1007.1	7.15447
1009.99	9.3057
1012.88	11.6407
1015.78	13.6984
1018.67	19.4264
1021.56	24.0937
1024.45	30.4903
1027.35	36.4173
1030.24	43.6785
1033.13	47.3013
1036.03	52.7957
1038.92	56.8883
1041.81	55.5794
1044.7	53.2732
1047.6	44.9894
1050.49	40.6816
1053.38	36.4729
1056.28	32.5354
1059.17	27.7243
1062.06	21.4713
1064.95	18.3002
1067.85	14.5586
1070.74	10.4891
1073.63	7.66745
1076.52	6.6809
1079.42	4.37151
1082.31	5.0855
1085.2	3.05261
1088.09	3.58452
1090.99	2.35625
1093.88	3.10065
1096.77	4.72753
1099.66	4.55685
1102.56	3.81156
1105.45	5.10332
1108.34	4.60953
1111.24	3.36212
1114.13	0.723507
1117.02	2.32118
1119.91	4.03377
1122.81	3.20737
1125.7	1.09963
1128.59	0.947201
1131.48	0.156933
1134.38	0.361668
1137.27	0.468807
1140.16	0.47258
1143.06	0.464752
1145.95	0.307861
1148.84	1.67687
1151.73	0.701683
1154.63	2.0301
1157.52	2.90045
1160.41	3.87568
1163.3	4.1914
1166.2	2.36492
1169.09	1.28123
1171.98	2.99138
1174.88	3.27862
1177.77	2.71046
1180.66	5.5256
1183.55	2.83758
1186.45	2.99248
1189.34	2.80888
1192.23	2.71783
1195.12	2.06401
1198.02	2.33485
1200.91	1.23819
1203.8	1.46356
1206.69	0.11808
1209.59	0.348286
1212.48	2.33417
1215.37	1.97812
1218.27	3.45121
1221.16	0.107204
1224.05	3.18553
1226.94	0.237881
1229.84	0.08078
1232.73	2.12373
1235.62	2.80181
1238.52	3.10596
1241.41	0.753269
1244.3	2.39236
1247.19	1.98035
1250.09	1.81967
1252.98	0.866829
1255.87	1.60379
1258.76	2.92874
1261.66	3.31895
1264.55	2.64312
1267.44	1.59898
1270.33	0.851814
1273.23	1.37492
1276.12	0.42123
1279.01	1.40224
1281.9	2.26434
1284.8	0.299225
