Measurement: Raman, 532 nm, unoriented, Raman Data Processed
Mineral: Plancheite
Rruff sample: R070233
Ideal chemistry: Cu^2+^_8_(Si_4_O_11_)_2_(OH)_4_H_2_O
Locality: Tsumeb mine, Tsumeb, Otavi District, Oshikoto, Namibia
Source: Michael Scott
Description: Light blue radial fibrous, chatoyant crystals with drusy malachite
Raman shift (cm-1)	intensity
221.146	0
224.038	9.67261
226.931	9.72412
229.824	11.8643
232.717	17.2722
235.609	35.4958
238.502	41.4951
241.395	38.8499
244.287	44.9541
247.18	51.2925
250.073	46.1135
252.965	48.606
255.858	53.7109
258.751	56.0796
261.644	58.5237
264.536	51.0745
267.429	42.667
270.322	24.4517
273.214	33.3457
276.107	21.8284
279	12.8433
281.892	21.2915
284.785	3.39624
287.678	1.68774
290.571	7.22485
293.463	4.64673
296.356	8.95557
299.249	20.4299
302.141	32.5564
305.034	36.4436
307.927	51.8438
310.82	47.9485
313.712	52.0635
316.605	55.4951
319.498	53.6636
322.39	56.3625
325.283	61.4609
328.176	63.5908
331.068	70.7961
333.961	71.3835
336.854	79.4446
339.747	78.2891
342.639	57.3467
345.532	27.6008
348.425	15.4849
351.317	12.5139
354.21	14.1677
357.103	6.9939
359.995	2.90112
362.888	2.02734
365.781	4.52808
368.673	3.85229
371.566	7.07422
374.459	11.8132
377.352	14.5459
380.244	17.1934
383.137	41.0464
386.03	53.0071
388.922	67.1238
391.815	63.8132
394.708	67.8879
397.601	69.5439
400.493	73.9729
403.386	65.7515
406.279	65.3889
409.171	60.7671
412.064	66.0342
414.957	57.134
417.849	43.7095
420.742	34.3352
423.635	31.1916
426.527	51.551
429.42	78.9045
432.313	85.9409
435.206	94.6531
438.098	103.907
440.991	106.77
443.884	102.658
446.776	100.334
449.669	77.5684
452.562	57.3555
455.454	40.8625
458.347	31.1438
461.24	20.8113
464.133	6.25366
467.025	2.88037
469.918	4.53784
472.811	12.9885
475.703	9.48071
478.596	16.0725
481.489	9.45557
484.382	7.38428
487.274	7.51733
490.167	7.41382
493.06	26.3699
495.952	26.8274
498.845	35.8726
501.738	31.5386
504.63	19.5146
507.523	13.0464
510.416	22.2883
513.308	20.863
516.201	10.5593
519.094	9.27393
521.987	0.373535
524.879	4.34521
527.772	12.1245
530.665	1.4436
533.557	1.54834
536.45	2.61768
539.343	6.27588
542.236	24.9436
545.128	17.2463
548.021	34.4153
550.914	40.2105
553.806	38.7576
556.699	31.8843
559.592	23.4136
562.484	24.0454
565.377	19.7356
568.27	14.0286
571.163	18.7971
574.055	25.1633
576.948	17.0188
579.841	15.386
582.733	17.9468
585.626	8.56201
588.519	14.8928
591.411	19.9905
594.304	10.0264
597.197	11.8665
600.09	20.6494
602.982	9.56323
605.875	4.82397
608.768	7.86816
611.66	7.75073
614.553	16.0444
617.446	9.97046
620.338	7.01269
623.231	3.95947
626.124	4.55859
629.016	3.31543
631.909	11.3945
634.802	14.9429
637.695	21.7273
640.587	26.6045
643.48	37.0845
646.373	41.4009
649.265	53.283
652.158	59.469
655.051	71.0464
657.943	97.1919
660.836	122.62
663.729	139.474
666.622	163.248
669.514	201.024
672.407	211.901
675.3	216.131
678.192	202.868
681.085	153.276
683.978	108.312
686.87	80.6135
689.763	63.238
692.656	52.0002
695.549	36.3276
698.441	36.3667
701.334	23.7766
704.227	12.0254
707.119	11.0435
710.012	30.2258
712.905	23.6121
715.798	7.77686
718.69	0.195801
721.583	4.30566
724.476	11.2378
727.368	17.2102
730.261	11.7602
733.154	18.7375
736.046	6.5896
738.939	10.8118
741.832	0.949951
744.725	6.73682
747.617	1.62647
750.51	6.72729
753.403	25.0295
756.295	21.3364
759.188	22.0986
762.081	20.0029
764.973	19.8489
767.866	24.4014
770.759	20.5466
773.652	32.3862
776.544	26.6929
779.437	30.0427
782.33	35.9729
785.222	29.0794
788.115	21.0977
791.008	20.7581
793.9	20.0652
796.793	18.3572
799.686	4.19043
802.578	6.99854
805.471	0.177002
808.364	10.8547
811.257	1.24902
814.149	11.8679
817.042	13.0244
819.935	21.2229
822.827	15.5911
825.72	3.9331
828.613	6.14795
831.505	4.98071
834.398	2.10254
837.291	3.00098
840.184	13.0935
843.076	9.93921
845.969	6.86621
848.862	2.31006
851.754	4.89697
854.647	0.310303
857.54	3.65503
860.433	9.24121
863.325	5.93896
866.218	5.32593
869.111	0.706055
872.003	12.7327
874.896	12.176
877.789	10.8379
880.681	1.17065
883.574	14.8328
886.467	21.156
889.36	33.4587
892.252	21.7512
895.145	16.2974
898.038	14.0435
900.93	14.2158
903.823	9.77832
906.716	23.0339
909.608	20.407
912.501	11.2798
915.394	17.1851
918.287	22.5432
921.179	10.0054
924.072	15.0654
926.965	6.61743
929.857	11.5669
932.75	5.18335
935.643	3.51245
938.535	5.29614
941.428	4.56006
944.321	7.14111
947.213	14.0425
950.106	10.0183
952.999	16.7703
955.892	0.77002
958.784	9.7019
961.677	9.69531
964.57	14.7102
967.462	12.0352
970.355	9.64209
973.248	10.8235
976.14	13.6389
979.033	18.6631
981.926	13.1362
984.819	3.10156
987.711	20.3735
990.604	22.3936
993.497	24.4768
996.389	27.5925
999.282	13.2009
1002.17	11.4639
1005.07	20.6113
1007.96	12.1167
1010.85	20.0998
1013.75	7.70239
1016.64	1.26294
1019.53	9.34546
1022.42	15.2002
1025.32	5.80811
1028.21	6.15527
1031.1	7.04175
1033.99	9.91089
1036.89	18.9316
1039.78	3.302
1042.67	2.44141
1045.57	0.618164
1048.46	13.8933
1051.35	11.4685
1054.24	17.2871
1057.14	27.5293
1060.03	17.1472
1062.92	16.3957
1065.81	24.4341
1068.71	20.7436
1071.6	18.4597
1074.49	9.53247
1077.38	8.30396
1080.28	10.1931
1083.17	6.54321
1086.06	4.18555
1088.96	1.80493
1091.85	4.61377
1094.74	1.72778
1097.63	13.1763
1100.53	10.4607
1103.42	5.76196
1106.31	11.136
1109.2	8.01172
1112.1	25.7717
1114.99	17.5137
1117.88	11.8845
1120.78	15.3354
1123.67	14.4719
1126.56	13.2534
1129.45	8.01562
1132.35	2.39917
1135.24	5.70606
1138.13	14.156
1141.02	1.13086
1143.92	3.69165
1146.81	6.54321
1149.7	15.1038
1152.6	0.036865
1155.49	1.65137
1158.38	5.98096
1161.27	1.58618
1164.17	9.52539
1167.06	0.482178
1169.95	0.414063
1172.84	2.25757
1175.74	6.34888
1178.63	10.7485
1181.52	11.8865
1184.41	14.5054
1187.31	19.6194
1190.2	13.543
1193.09	15.8142
1195.99	10.5569
1198.88	9.97339
1201.77	19.8994
1204.66	14.4951
1207.56	25.8208
1210.45	26.1892
1213.34	24.6265
1216.23	17.7568
1219.13	11.5664
1222.02	18.0422
1224.91	13.9168
1227.81	16.1982
1230.7	10.7568
1233.59	8.10083
1236.48	3.19385
1239.38	6.37646
1242.27	11.5408
1245.16	11.2646
1248.05	11.6831
1250.95	0.050293
1253.84	12.3181
1256.73	13.4834
1259.62	9.50317
1262.52	20.5818
1265.41	17.6121
1268.3	16.3147
1271.2	10.0767
1274.09	13.5176
1276.98	6.67822
1279.87	8.08911
1282.77	0.842041
1285.66	5.77759
1288.55	3.33203
1291.44	14.3142
1294.34	10.5242
1297.23	10.4531
1300.12	17.1228
1303.02	0
