Measurement: Raman, 780 nm, unoriented, Raman Data Processed
Mineral: Plattnerite
Rruff sample: R080019
Ideal chemistry: Pb^4+^O_2_
Locality: Snake Pit, lower Mex-Tex mine, Hansonburg District, Socorro County, New Mexico, USA
Source: William W. Pinch
Description: Black twinned crystals associated with red scrutinyite, R080018, on the surface of a quartz crystal
Raman shift (cm-1)	intensity
146.521	0
149.413	0.01416
152.306	4.32233
155.199	3.03809
158.091	4.9079
160.984	3.46783
163.877	2.13739
166.77	1.85956
169.662	0.265564
172.555	1.58179
175.448	2.92438
178.34	2.77155
181.233	5.19958
184.126	8.21637
187.018	11.6332
189.911	10.9435
192.804	12.994
195.697	14.3433
198.589	14.4489
201.482	18.4253
204.375	16.9881
207.267	18.7457
210.16	21.7224
213.053	19.3808
215.946	22.5151
218.838	21.603
221.731	21.4971
224.624	22.6978
227.516	22.816
230.409	19.9317
233.302	21.8268
236.194	17.5812
239.087	15.1679
241.98	13.4426
244.873	14.1253
247.765	11.164
250.658	9.52542
253.551	8.36115
256.443	5.263
259.336	4.58566
262.229	2.32834
265.121	3.56494
268.014	2.17227
270.907	1.875
273.8	2.87387
276.692	2.00793
279.585	1.66852
282.478	0.582764
285.37	0.070435
288.263	0.224274
291.156	0.417542
294.048	1.46655
296.941	2.26062
299.834	1.25986
302.726	1.8316
305.619	5.53686
308.512	3.35275
311.405	3.61066
314.297	5.92023
317.19	4.8306
320.083	8.28949
322.975	6.68216
325.868	6.14844
328.761	6.92563
331.654	7.17676
334.546	7.3331
337.439	6.81436
340.332	8.89908
343.224	7.67535
346.117	4.70047
349.01	5.13571
351.902	4.79819
354.795	3.59128
357.688	2.68948
360.58	3.41434
363.473	3.19376
366.366	3.15735
369.259	4.55313
372.151	7.55707
375.044	5.76517
377.937	8.4747
380.829	7.88724
383.722	8.38843
386.615	9.88174
389.507	10.6533
392.4	10.6982
395.293	10.1828
398.185	8.19211
401.078	9.76172
403.971	8.62534
406.864	7.60608
409.756	8.08609
412.649	5.44122
415.542	5.52118
418.434	4.48318
421.327	3.0044
424.22	2.48135
427.113	0.992065
430.005	0.586151
432.898	0.315643
435.791	1.20319
438.683	2.75442
441.576	1.69989
444.469	0.862
447.361	0.032837
450.254	0.32782
453.147	1.94113
456.039	2.98303
458.932	3.17835
461.825	4.23288
464.718	5.94434
467.61	6.81851
470.503	10.4842
473.396	12.5411
476.288	14.2905
479.181	18.085
482.074	22.891
484.966	27.7757
487.859	33.4856
490.752	41.6255
493.645	46.7063
496.537	52.7268
499.43	58.1934
502.323	61.1469
505.215	63.4008
508.108	66.2496
511.001	63.3032
513.894	61.5868
516.786	58.2578
519.679	57.6521
522.572	53.7605
525.464	52.1594
528.357	49.3467
531.25	47.2204
534.142	43.0243
537.035	38.2807
539.928	34.5627
542.821	28.9906
545.713	22.7081
548.606	16.0207
551.499	13.5694
554.391	11.7035
557.284	5.46712
560.177	3.57031
563.069	2.92842
565.962	0.57312
568.855	0.89975
571.747	0.376984
574.64	1.38364
577.533	0.078613
580.426	0.708923
583.318	1.00084
586.211	0.799683
589.104	0.188736
591.996	1.23015
594.889	1.6506
597.782	2.70781
600.674	1.99945
603.567	2.47055
606.46	1.62364
609.352	4.35213
612.245	2.11835
615.138	4.31407
618.031	2.90726
620.923	5.1434
623.816	4.50439
626.709	5.41653
629.601	6.14833
632.494	7.52159
635.387	7.9805
638.279	9.70303
641.172	9.76729
644.065	9.52679
646.958	10.6344
649.85	9.24544
652.743	9.41663
655.636	8.41185
658.528	6.95677
661.421	4.09721
664.314	4.43343
667.207	5.08934
670.099	3.10603
672.992	1.65518
675.885	1.0616
678.777	0.410736
681.67	1.88364
684.563	1.12703
687.455	1.11884
690.348	0.316925
693.241	0.837204
696.134	0.72142
699.026	0.277618
701.919	0.578705
704.812	0.567902
707.704	0.248672
710.597	2.20776
713.49	1.19518
716.382	1.02553
719.275	2.56284
722.168	1.85286
725.061	3.39354
727.953	2.53928
730.846	3.48691
733.739	3.09781
736.631	3.15565
739.524	3.45264
742.417	3.78592
745.309	2.69196
748.202	4.33246
751.095	2.92535
753.987	1.78844
756.88	1.53006
759.773	2.24822
762.666	0.833008
765.558	0.862976
768.451	0.933273
771.344	0.435547
774.236	1.42261
777.129	1.12131
780.022	0.204559
782.914	0.083237
785.807	0.566071
788.7	1.16576
791.593	0.74054
794.485	1.10223
797.378	0.779175
800.271	0.708511
803.163	0.190887
806.056	1.10696
808.949	0.922958
811.841	0.396362
814.734	0.940262
817.627	0.438431
820.52	1.47327
823.412	1.15945
826.305	1.17627
829.198	0.759781
832.09	1.6107
834.983	2.84843
837.876	1.58815
840.769	1.42365
843.661	0.717987
846.554	0.561668
849.447	1.5323
852.339	1.45962
855.232	0.634789
858.125	2.01704
861.017	1.19965
863.91	2.38566
866.803	0.120049
869.696	0.805107
872.588	2.124
875.481	1.3892
878.374	1.24686
881.266	2.60001
884.159	1.10159
887.052	0.667206
889.944	1.40485
892.837	0.60955
895.73	1.52901
898.622	0.187943
901.515	1.06609
904.408	0.627274
907.301	0.369141
910.193	0.088806
913.086	1.04813
915.979	0.178673
918.871	0.501938
921.764	0.48558
924.657	0.547241
927.549	0.860397
930.442	0.173805
933.335	1.15168
936.227	1.04497
939.12	1.16833
942.013	0.281876
944.906	1.63343
947.798	0.052887
950.691	0.897644
953.584	1.33093
956.476	0.426064
959.369	0.876045
962.262	0.436287
965.154	1.12942
968.047	0.59156
970.94	0.171165
973.833	0.641243
976.725	1.66668
979.618	0.36235
982.511	1.83162
985.403	1.02765
988.296	0.050041
991.189	1.63719
994.082	0.042328
996.974	1.84416
999.867	0.342232
1002.76	0.036919
1005.65	0.322655
1008.54	0.161942
1011.44	0.501762
1014.33	0.846764
1017.22	1.18523
1020.12	0.52182
1023.01	0.437096
1025.9	1.16772
1028.79	0.067184
1031.69	1.40901
1034.58	0.679863
1037.47	1.65121
1040.37	1.44544
1043.26	0.683434
1046.15	0.948433
1049.04	1.5249
1051.94	1.44026
1054.83	1.06457
1057.72	1.93392
1060.61	1.71191
1063.51	1.78825
1066.4	0.608177
1069.29	1.28912
1072.18	1.90445
1075.08	1.9813
1077.97	1.63788
1080.86	1.33937
1083.76	1.83173
1086.65	2.29261
1089.54	1.54993
1092.43	2.1246
1095.33	1.72913
1098.22	1.10229
1101.11	1.7297
1104	1.11196
1106.9	0.979149
1109.79	0.356651
1112.68	0.439751
1115.58	1.12371
1118.47	0.323524
1121.36	0.542915
1124.25	0.485161
1127.15	0.888969
1130.04	1.59269
1132.93	1.06648
1135.82	0.621239
1138.72	0.699379
1141.61	0.878563
1144.5	1.56546
1147.39	0.10714
1150.29	0.614212
1153.18	0.422493
1156.07	1.27843
1158.96	0.494385
1161.86	0.770683
1164.75	0.447655
1167.64	0.022682
1170.54	0.588959
1173.43	0.439346
1176.32	0.377907
1179.21	0.141319
1182.11	0.432251
1185	1.00171
1187.89	0.718117
1190.79	0.211121
1193.68	0.638832
1196.57	0.016533
1199.46	0.308777
1202.36	1.60941
1205.25	0.174973
1208.14	1.06466
1211.03	1.26936
1213.93	0.664413
1216.82	1.26819
1219.71	0.437599
1222.61	0.928696
1225.5	0.253578
1228.39	1.46377
1231.28	1.19024
1234.18	0.688356
1237.07	1.34586
1239.96	2.10737
1242.85	0.990517
1245.75	0.618301
1248.64	0.466904
1251.53	1.34431
1254.42	0.487061
1257.32	1.56988
1260.21	0.075516
1263.1	1.2127
1265.99	0.291229
1268.89	0.645935
1271.78	0.369156
1274.67	0.082771
1277.57	0.864777
1280.46	0.276573
