Measurement: Raman, 532 nm, unoriented, Raman Data Processed
Mineral: Plattnerite
Rruff sample: R080019
Ideal chemistry: Pb^4+^O_2_
Locality: Snake Pit, lower Mex-Tex mine, Hansonburg District, Socorro County, New Mexico, USA
Source: William W. Pinch
Description: Black twinned crystals associated with red scrutinyite, R080018, on the surface of a quartz crystal
Raman shift (cm-1)	intensity
145.783	0
149.158	0.377823
152.533	0.252953
155.908	2.31113
159.283	0.407372
162.657	1.43596
166.032	1.43817
169.407	2.17478
172.782	0.290344
176.157	0.106308
179.532	1.56135
182.906	1.15603
186.281	2.11245
189.656	2.19947
193.031	2.29154
196.406	1.39654
199.78	2.51342
203.155	2.31984
206.53	2.52483
209.905	2.76755
213.28	2.35792
216.655	2.63892
220.029	2.33263
223.404	2.00571
226.779	2.50096
230.154	1.91848
233.529	1.88428
236.904	2.13009
240.278	2.79197
243.653	2.60371
247.028	2.3221
250.403	1.66018
253.778	1.31548
257.152	1.03086
260.527	0.317375
263.902	1.02136
267.277	0.134399
270.652	0.107361
274.026	0.466728
277.401	0.322586
280.776	0.236816
284.151	0.859528
287.526	1.1385
290.901	0.205185
294.275	0.138489
297.65	0.625305
301.025	0.352692
304.4	1.21949
307.775	1.50015
311.149	0.684364
314.524	0.237808
317.899	0.436188
321.274	0.821716
324.649	0.296364
328.024	0.589249
331.398	0.507881
334.773	0.337685
338.148	1.08111
341.523	1.17188
344.898	0.642448
348.272	0.891983
351.647	0.4702
355.022	0.879982
358.397	0.999817
361.772	1.99771
365.147	2.02701
368.521	2.68435
371.896	2.60598
375.271	3.47892
378.646	3.41532
382.021	3.55749
385.395	3.64258
388.77	3.69569
392.145	3.03676
395.52	3.94869
398.895	3.11929
402.269	2.70363
405.644	2.64748
409.019	2.77341
412.394	2.65578
415.769	1.37421
419.144	2.02747
422.518	1.55137
425.893	0.678543
429.268	1.43234
432.643	0.493484
436.018	0.085548
439.392	0.135124
442.767	0.119209
446.142	0.047211
449.517	0.294518
452.892	0.482689
456.267	0.292397
459.641	0.506355
463.016	0.235268
466.391	0.14772
469.766	0.546875
473.141	1.67512
476.515	1.04684
479.89	1.88058
483.265	3.43283
486.64	3.94293
490.015	4.83327
493.389	6.87849
496.764	7.46734
500.139	9.91351
503.514	11.9936
506.889	13.8986
510.264	13.7299
513.638	14.3468
517.013	13.7258
520.388	13.3003
523.763	13.5386
527.138	12.1465
530.513	11.5116
533.887	10.1294
537.262	9.92356
540.637	9.11134
544.012	8.13915
547.386	6.43626
550.761	5.25792
554.136	3.76702
557.511	2.84389
560.886	0.731285
564.261	0.867355
567.635	0.094505
571.01	0.54425
574.385	0.769661
577.76	0.288033
581.135	0.103134
584.51	0.059784
587.884	0.47287
591.259	0.782814
594.634	1.19443
598.009	0.846016
601.384	0.774124
604.758	1.30404
608.133	1.20436
611.508	1.34421
614.883	1.33504
618.258	1.56588
621.633	2.1401
625.007	2.31074
628.382	2.4237
631.757	3.91813
635.132	2.72927
638.507	4.73967
641.881	4.42564
645.256	4.56696
648.631	6.74491
652.006	5.71552
655.381	5.61079
658.755	4.78212
662.13	4.05288
665.505	3.14447
668.88	3.22218
672.255	2.692
675.63	1.64002
679.004	1.06965
682.379	0.344063
685.754	1.17362
689.129	0.291386
692.504	0.313324
695.879	0.195297
699.253	0.08865
702.628	0.368919
706.003	0.358147
709.378	0.489479
712.753	0.731022
716.127	0.16404
719.502	0.460632
722.877	1.15695
726.252	0.52776
729.627	0.737003
733.001	0.64711
736.376	0.264923
739.751	0.6092
743.126	1.57633
746.501	1.15124
749.875	0.697395
753.25	0.420017
756.625	0.421688
760	1.09078
763.375	0.047211
766.75	0.233944
770.124	0.292442
773.499	0.332222
776.874	0.608627
780.249	0.062481
783.624	0.269962
786.999	0.428383
790.373	1.05222
793.748	0.043591
797.123	0.345604
800.498	0.455666
803.873	0.837227
807.247	0.046726
810.622	0.285553
813.997	0.493149
817.372	0.735363
820.747	0.985226
824.121	0.415409
827.496	0.281475
830.871	0.721264
834.246	0.419872
837.621	0.4118
840.995	0.089733
844.37	0.163486
847.745	0.526321
851.12	0.569225
854.495	0.158924
857.87	1.20827
861.244	1.15645
864.619	0.685478
867.994	1.29118
871.369	0.165684
874.744	0.649826
878.119	1.03006
881.493	0.111134
884.868	0.22361
888.243	0.337967
891.618	1.33273
894.993	0.633003
898.367	0.661297
901.742	0.26553
905.117	0.362831
908.492	0.239223
911.867	0.660946
915.241	0.080402
918.616	0.268639
921.991	0.838978
925.366	0.014786
928.741	0.822063
932.116	0.567482
935.49	0.517712
938.865	0.67511
942.24	0.277157
945.615	0.326443
948.99	0.075943
952.365	0.350708
955.739	0.140705
959.114	0.407661
962.489	0.950214
965.864	0.731277
969.239	0.173515
972.613	0.637272
975.988	0.358696
979.363	0.373943
982.738	0.470238
986.113	0.99469
989.487	0.990803
992.862	0.373104
996.237	0.655342
999.612	1.03015
1002.99	1.91945
1006.36	1.49132
1009.74	1.17569
1013.11	0.541054
1016.49	0.716778
1019.86	0.119305
1023.24	0.550743
1026.61	0.008621
1029.98	0.75964
1033.36	1.44945
1036.73	0.297565
1040.11	0.369957
1043.48	0.997345
1046.86	0.961594
1050.23	0.540581
1053.61	0.91383
1056.98	0.779186
1060.36	0.876949
1063.73	1.11481
1067.11	1.0233
1070.48	0.676167
1073.86	0.838932
1077.23	0.474468
1080.61	0.400368
1083.98	0.635925
1087.36	0.812012
1090.73	0.385166
1094.11	0.755489
1097.48	0.999256
1100.86	0.395035
1104.23	0.504898
1107.61	0.795727
1110.98	0.692966
1114.36	0.536587
1117.73	1.13111
1121.11	0.654964
1124.48	0.705936
1127.86	1.06475
1131.23	1.21682
1134.6	1.23541
1137.98	0.643852
1141.35	0.207748
1144.73	0.325535
1148.1	0.710632
1151.48	1.48898
1154.85	0.647041
1158.23	0.100586
1161.6	0.245407
1164.98	0.573925
1168.35	0.426708
1171.73	0.303978
1175.1	0.254452
1178.48	0.159615
1181.85	0.74218
1185.23	0.156219
1188.6	0.029285
1191.98	0.885246
1195.35	0.209347
1198.73	0.052113
1202.1	0.101593
1205.48	0.010151
1208.85	1.18683
1212.22	0.41943
1215.6	0.957073
1218.97	0.666401
1222.35	0.598965
1225.72	0.910801
1229.1	0.626511
1232.47	0.166088
1235.85	0.946056
1239.22	1.08759
1242.6	1.22795
1245.97	0.891258
1249.35	1.46755
1252.72	1.03233
1256.1	0.8927
1259.47	0.981586
1262.85	0.777752
1266.22	0.44973
1269.6	1.46054
1272.97	1.21133
1276.35	0.749706
1279.72	0.503696
1283.1	0.106426
1286.47	1.69616
1289.85	0.854557
1293.22	1.30926
1296.6	0.225197
1299.97	0.812611
1303.35	0.182892
