Measurement: Raman, 532 nm, unoriented, Raman Data Processed
Mineral: Plombierite
Rruff sample: R070162
Ideal chemistry: Ca_5_Si_6_O_16_(OH)_2_7H_2_O
Locality: Crestmore, Riverside County, California, USA
Source: James Shigley
Description: Matted white fibrous aggregate with calcite
Raman shift (cm-1)	intensity
168.02	0
170.913	196.445
173.805	189.258
176.698	307.789
179.591	287.387
182.483	199.066
185.376	302.496
188.269	699.344
191.162	587.133
194.054	514.859
196.947	603.672
199.84	644.641
202.732	635.59
205.625	722.188
208.518	705.027
211.411	621.742
214.303	606.887
217.196	690
220.089	540.887
222.981	549.289
225.874	616.434
228.767	566.762
231.659	466.242
234.552	409.477
237.445	521.688
240.338	391.684
243.23	484.18
246.123	267.609
249.016	283.258
251.908	236.352
254.801	356.41
257.694	176.312
260.586	306.203
263.479	372.949
266.372	363.113
269.264	314.809
272.157	260.199
275.05	373.519
277.943	402.988
280.835	301.512
283.728	514.531
286.621	418.758
289.514	299.59
292.406	143.652
295.299	160.418
298.192	44.2461
301.084	195.168
303.977	112.336
306.87	69.4023
309.762	160.863
312.655	46.75
315.548	52
318.44	11.9766
321.333	275.398
324.226	3.36719
327.119	141.672
330.011	14.125
332.904	38.7344
335.797	327.188
338.689	220.094
341.582	145.539
344.475	13.2656
347.368	36.1641
350.26	149.609
353.153	95.0703
356.046	67.625
358.938	26.0547
361.831	113.688
364.724	42.9922
367.616	161.5
370.509	157.641
373.402	37.4297
376.295	69.7734
379.187	15.1641
382.08	26.3828
384.973	49.4609
387.865	108.016
390.758	11.9531
393.651	212.531
396.543	77.3672
399.436	341.242
402.329	162.555
405.221	123.453
408.114	232.586
411.007	89.5391
413.9	324.711
416.792	173.328
419.685	302.523
422.578	269.125
425.47	173.891
428.363	289.914
431.256	408.211
434.149	371.273
437.041	342.375
439.934	102.797
442.827	418.562
445.719	345.266
448.612	125.828
451.505	321.406
454.397	320.578
457.29	350.656
460.183	360.141
463.075	333.938
465.968	239.203
468.861	227
471.754	264.648
474.646	285.289
477.539	481.25
480.432	214.781
483.324	325.336
486.217	259.844
489.11	300.297
492.003	200.094
494.895	176.492
497.788	80.4766
500.681	161.773
503.573	158.945
506.466	271.508
509.359	12.8594
512.251	270.195
515.144	107.602
518.037	185.641
520.93	181.922
523.822	183.438
526.715	279.57
529.608	351.945
532.5	307.727
535.393	324.781
538.286	203.586
541.178	105.906
544.071	212.539
546.964	236.281
549.857	97.3359
552.749	125.039
555.642	196.812
558.535	268.836
561.427	218.234
564.32	166.555
567.213	118.242
570.106	51.4141
572.998	326.578
575.891	11.0703
578.784	66.5938
581.676	24.3438
584.569	188.141
587.462	81.8828
590.354	46.5859
593.247	246.023
596.14	223.328
599.033	286.492
601.925	341.031
604.818	264.75
607.711	312.852
610.603	360.922
613.496	517.711
616.389	406.172
619.281	555.352
622.174	708.297
625.067	686.688
627.96	609.531
630.852	450.5
633.745	820.383
636.638	751.422
639.53	766.133
642.423	854.367
645.316	1252.7
648.208	1247.58
651.101	1411.09
653.994	1788.75
656.886	1919.52
659.779	2469.92
662.672	2736.12
665.565	2648.59
668.457	2001.31
671.35	2092.98
674.243	1897.27
677.135	1357.41
680.028	1183.2
682.921	996.469
685.813	671.453
688.706	478.68
691.599	430.742
694.492	517.523
697.384	307.281
700.277	298.344
703.17	328.133
706.062	672.539
708.955	138.984
711.848	390.078
714.74	415.82
717.633	262.234
720.526	248.133
723.419	46.3906
726.311	203.328
729.204	116.203
732.097	135.281
734.989	78.8984
737.882	21.9062
740.775	77.5547
743.668	114.117
746.56	45.5078
749.453	150.07
752.346	24.4844
755.238	213.469
758.131	327.766
761.024	357.719
763.917	109.375
766.809	261.07
769.702	71.0469
772.595	198.156
775.487	224.938
778.38	164.789
781.273	192.094
784.165	318.172
787.058	451.945
789.951	127.219
792.843	282.984
795.736	264.508
798.629	244.672
801.522	148.312
804.414	251.648
807.307	57.9375
810.2	212.5
813.092	322.922
815.985	182.055
818.878	123.625
821.77	515.469
824.663	134.719
827.556	151.641
830.449	237.969
833.341	13.1094
836.234	355.828
839.127	137.047
842.019	117.844
844.912	333.938
847.805	190.516
850.697	322.672
853.59	139.016
856.483	271.328
859.376	1.70312
862.268	146.234
865.161	215.172
868.054	200.125
870.946	113.234
873.839	157.391
876.732	175.109
879.625	256.812
882.517	82.0312
885.41	38.1406
888.303	51.7969
891.195	121.75
894.088	257.453
896.981	190.156
899.874	310
902.766	216.812
905.659	279.484
908.552	10.6719
911.444	315.172
914.337	324.062
917.23	45.7031
920.122	373.172
923.015	249.219
925.908	183.344
928.801	54.6094
931.693	298.953
934.586	243.109
937.479	23.4219
940.371	172.891
943.264	413.391
946.157	261.547
949.049	139.812
951.942	293.578
954.835	183.766
957.727	278.688
960.62	450.828
963.513	266.75
966.406	60.5938
969.298	330.359
972.191	174.859
975.084	92.2344
977.976	431.188
980.869	147.312
983.762	254.625
986.654	214.281
989.547	602.984
992.44	531.219
995.333	554.516
998.225	633.859
1001.12	985.547
1004.01	828.266
1006.9	657.391
1009.8	353.547
1012.69	580.172
1015.58	445.562
1018.47	539.031
1021.37	328.016
1024.26	244.203
1027.15	303.016
1030.05	361.906
1032.94	459.531
1035.83	363.703
1038.72	433.406
1041.62	143.562
1044.51	262.578
1047.4	544
1050.29	279.844
1053.19	75.8438
1056.08	345.25
1058.97	224.109
1061.87	217.312
1064.76	193.172
1067.65	17.1562
1070.54	24.9219
1073.44	423.562
1076.33	313.719
1079.22	728.891
1082.11	940.906
1085.01	1111.09
1087.9	1214.12
1090.79	532.469
1093.68	336.344
1096.58	131.562
1099.47	251.719
1102.36	265.938
1105.26	11.7344
1108.15	24.5625
1111.04	203.984
1113.93	131.922
1116.83	384.875
1119.72	439.578
1122.61	364.094
1125.5	404.312
1128.4	473.641
1131.29	308.422
1134.18	215.531
1137.08	586.5
1139.97	532.922
1142.86	471.234
1145.75	325.266
1148.65	454.922
1151.54	794.906
1154.43	534.359
1157.32	248.016
1160.22	722.672
1163.11	264.609
1166	177.875
1168.89	329.25
1171.79	536.969
1174.68	387.422
1177.57	550.844
1180.46	107.797
1183.36	48.2031
1186.25	380.562
1189.14	393.391
1192.04	227.453
1194.93	148.328
1197.82	492.125
1200.71	276.672
1203.61	499.781
1206.5	61.2656
1209.39	170.906
1212.29	292.672
1215.18	79.0469
1218.07	411.875
1220.96	472.656
1223.86	184.609
1226.75	79.6562
1229.64	183.438
1232.53	63.7656
1235.43	320.203
1238.32	73.2812
1241.21	142.172
1244.11	338.812
1247	80.2969
1249.89	547.562
1252.78	350.312
1255.68	97.4688
1258.57	279.109
1261.46	559.438
1264.35	399.766
1267.25	586.156
1270.14	223.562
1273.03	757.531
1275.92	420.141
1278.82	520.984
1281.71	461.719
1284.6	653.469
1287.49	562.688
1290.39	255.891
1293.28	27.125
1296.17	451.141
1299.07	503.359
1301.96	257.344
1304.85	248.828
1307.74	116.797
