Measurement: Raman, 785 nm, unoriented, Raman Data Processed
Mineral: Plombierite
Rruff sample: R070162
Ideal chemistry: Ca_5_Si_6_O_16_(OH)_2_7H_2_O
Locality: Crestmore, Riverside County, California, USA
Source: James Shigley
Description: Matted white fibrous aggregate with calcite
Raman shift (cm-1)	intensity
202.787	0
205.68	71.1367
208.573	223.188
211.465	21.9336
214.358	29.5273
217.251	121.402
220.143	210.414
223.036	367.719
225.929	336.769
228.821	225.648
231.714	161.707
234.607	235.844
237.5	443.949
240.392	373.891
243.285	383.981
246.178	411.422
249.07	396.414
251.963	315.625
254.856	516.449
257.748	549.106
260.641	534.879
263.534	618.348
266.427	860.894
269.319	854.633
272.212	806.051
275.105	1008.7
277.997	1065.81
280.89	1275.04
283.783	1101.96
286.675	1134.15
289.568	1008.98
292.461	830.25
295.354	708.277
298.246	530.769
301.139	577.59
304.032	732.348
306.924	555.074
309.817	690.66
312.71	593.84
315.602	490.559
318.495	513.035
321.388	355.188
324.281	460.727
327.173	526.414
330.066	601.676
332.959	444.555
335.851	459.926
338.744	269.25
341.637	109.856
344.529	5.96094
347.422	203.492
350.315	244.449
353.208	154.25
356.1	195.031
358.993	315.43
361.886	261.305
364.778	83.8789
367.671	29.0977
370.564	19.4883
373.457	80.082
376.349	297.734
379.242	114.051
382.135	52.6211
385.027	25.4414
387.92	29.6797
390.813	34.9805
393.705	42.1055
396.598	164.766
399.491	143.18
402.384	88.3086
405.276	101.394
408.169	94.8633
411.062	56.1758
413.954	45.6484
416.847	25.1797
419.74	49.707
422.632	114.012
425.525	53.0742
428.418	35.1953
431.31	119.035
434.203	196.984
437.096	223.375
439.989	264.93
442.881	243.965
445.774	307.856
448.667	174.961
451.559	140.922
454.452	181.16
457.345	179.945
460.238	0.609375
463.13	93.1406
466.023	99.3086
468.916	167.957
471.808	156.137
474.701	19.9453
477.594	70.9492
480.486	157.578
483.379	140.527
486.272	70.1914
489.164	252.277
492.057	278.988
494.95	201.055
497.843	14.5781
500.735	153.414
503.628	171.168
506.521	123.508
509.413	114.344
512.306	149.098
515.199	244.305
518.091	125.617
520.984	123.648
523.877	107.449
526.77	82.5117
529.662	42.3398
532.555	324.394
535.448	146.406
538.34	252.867
541.233	170.484
544.126	164.941
547.019	113.785
549.911	110.422
552.804	41.8965
555.697	82.8789
558.589	61.4062
561.482	58.791
564.375	57.4199
567.267	135.014
570.16	24.1172
573.053	177.748
575.945	14.9707
578.838	5.03711
581.731	139.678
584.624	196.906
587.516	84.7695
590.409	55.5156
593.302	48.709
596.194	153.826
599.087	62.7207
601.98	111.998
604.872	240.883
607.765	130.971
610.658	23.1836
613.551	54.3164
616.443	130.688
619.336	22.4961
622.229	130.338
625.121	119.732
628.014	95.9824
630.907	173.559
633.799	90.5938
636.692	56.6406
639.585	122.326
642.477	186.553
645.37	345.074
648.263	526.268
651.156	701.416
654.048	1117.27
656.941	1577.93
659.834	2060.73
662.726	2601.29
665.619	2828.34
668.512	2815.25
671.404	2333.4
674.297	1830.69
677.19	1445.53
680.083	845.674
682.975	718.861
685.868	540.834
688.761	436.834
691.653	353.609
694.546	332.205
697.439	377.223
700.332	299.309
703.224	221.025
706.117	350.232
709.01	341.557
711.902	283.715
714.795	236.977
717.688	176.648
720.58	183.891
723.473	163.584
726.366	110.477
729.259	81.0293
732.151	53.2539
735.044	58.2402
737.937	70.1797
740.829	46.6016
743.722	63.4727
746.615	202.113
749.507	105.969
752.4	50.0703
755.293	8.0293
758.186	143.066
761.078	21.6289
763.971	33.7812
766.864	7.77539
769.756	159.531
772.649	132.06
775.542	74.9199
778.434	68.8906
781.327	150.266
784.22	78.5879
787.112	75.1094
790.005	97.334
792.898	53.4863
795.791	30.9238
798.683	110.59
801.576	29.9531
804.469	49.3984
807.361	51.0391
810.254	49.084
813.147	63.7012
816.04	43.3965
818.932	129.918
821.825	71.3008
824.718	73.7285
827.61	96.0762
830.503	35.0039
833.396	203.324
836.288	59.8262
839.181	109.106
842.074	127.791
844.967	210.996
847.859	132.508
850.752	163.008
853.645	77.8828
856.537	7.0293
859.43	64.9199
862.323	244.715
865.216	192.977
868.108	149.639
871.001	155.791
873.894	133.164
876.786	150.625
879.679	143.965
882.572	153.715
885.464	99.3711
888.357	60.7754
891.25	122.252
894.143	63.7793
897.035	109.647
899.928	115.516
902.821	70.6816
905.713	131.615
908.606	100.022
911.499	87.666
914.391	130.494
917.284	18.7246
920.177	78.8398
923.069	31.7383
925.962	82.75
928.855	92.3672
931.748	117.973
934.64	50.1992
937.533	105.773
940.426	4.61914
943.318	71.3281
946.211	91.416
949.104	101.502
951.996	6.47461
954.889	18.4355
957.782	9.91016
960.675	124.289
963.567	48.6973
966.46	47.9395
969.353	92.1875
972.245	7.76562
975.138	73.7891
978.031	113.731
980.923	177.338
983.816	139.65
986.709	219.135
989.602	316.955
992.494	419.602
995.387	614.231
998.28	657.398
1001.17	847.865
1004.07	795.373
1006.96	816.309
1009.85	584.158
1012.74	505.537
1015.64	331.617
1018.53	290.766
1021.42	222.467
1024.31	245.848
1027.21	364.873
1030.1	289.029
1032.99	205.312
1035.88	236.379
1038.78	214.654
1041.67	269.842
1044.56	265.566
1047.46	268.678
1050.35	136.615
1053.24	237.031
1056.13	222.156
1059.03	242.959
1061.92	116.818
1064.81	115.518
1067.7	54.5684
1070.6	140.74
1073.49	236.057
1076.38	312.318
1079.28	697.283
1082.17	1240.31
1085.06	1639.61
1087.95	1413.42
1090.85	739.219
1093.74	157.465
1096.63	124.861
1099.52	69.9727
1102.42	18.4277
1105.31	57.334
1108.2	38.1836
1111.1	24.1621
1113.99	94.0723
1116.88	23.4648
1119.77	99.3535
1122.67	78.1484
1125.56	7.58203
1128.45	87.4648
1131.34	12.8652
1134.24	112.416
1137.13	72.8613
1140.02	64.0547
1142.91	27.6289
1145.81	39.666
1148.7	76.9316
1151.59	123.516
1154.48	7.53516
1157.38	30.4629
1160.27	28.7617
1163.16	95.5703
1166.06	167.769
1168.95	117.457
1171.84	68.6523
1174.73	5.58203
1177.63	68.1133
1180.52	80.4961
1183.41	63.7969
1186.31	15.8418
1189.2	123.277
1192.09	112.111
1194.98	166.748
1197.88	181.01
1200.77	124.689
1203.66	89.1289
1206.55	121.463
1209.45	121.262
1212.34	15.0742
1215.23	9.88281
1218.12	72.6094
1221.02	99.875
1223.91	45.3887
1226.8	74.0059
1229.7	130.508
1232.59	18.6719
1235.48	37.8457
