Measurement: Raman, 532 nm, unoriented, Raman Data Processed
Mineral: Plumbogummite
Rruff sample: R070700
Ideal chemistry: Pb^2+^Al_3_(PO_4_)(PO_3_OH)(OH)_6_
Locality: Yangshuo, Guangxi Autonomous Region, China
Source: Ken Roberts
Description: Grayish blue botryoidal crust associated with pale yellow pyromorphite
Raman shift (cm-1)	intensity
145.197	0
148.09	28.1758
150.983	104.428
153.875	210.67
156.768	186.121
159.661	203.914
162.554	36.2285
165.446	57.0898
168.339	159.443
171.232	265.037
174.124	548.053
177.017	647.391
179.91	1145.81
182.803	1292.94
185.695	1172.97
188.588	1255.1
191.481	1033.72
194.373	749.352
197.266	389.844
200.159	47.0938
203.051	119.668
205.944	25.0938
208.837	112.373
211.729	39.1973
214.622	11.4219
217.515	4.3457
220.407	242.144
223.3	410.328
226.193	659.115
229.086	1565.55
231.978	1302.6
234.871	1739.42
237.764	2037.82
240.656	2390.11
243.549	2822.8
246.442	2967.28
249.334	3352.57
252.227	3388.28
255.12	3265.55
258.013	2904.4
260.905	2497.48
263.798	2308.72
266.691	2160.16
269.583	2120.37
272.476	1896.69
275.369	1805.78
278.262	1588.82
281.154	1280.57
284.047	1068.01
286.94	782.248
289.832	617.051
292.725	514.334
295.618	331.045
298.51	75.0176
301.403	152.174
304.296	254.721
307.188	238.19
310.081	48.6543
312.974	221.316
315.867	60.6602
318.759	0.958984
321.652	7.37695
324.545	64.8008
327.437	61.9258
330.33	317.039
333.223	408.168
336.115	472.594
339.008	409.084
341.901	297.592
344.794	286.611
347.686	452.598
350.579	632.615
353.472	663.619
356.364	772.006
359.257	830.877
362.15	762.586
365.043	906.229
367.935	1031.87
370.828	1091.32
373.721	1013
376.613	1121.66
379.506	869.188
382.399	791.951
385.291	707.988
388.184	561.004
391.077	482.272
393.969	280.111
396.862	230.33
399.755	200.144
402.648	160.316
405.54	107.441
408.433	80.3301
411.326	51.5449
414.218	83.8926
417.111	42.6934
420.004	103.231
422.897	104.158
425.789	63.0605
428.682	111.269
431.575	195.139
434.467	323.158
437.36	370.6
440.253	359.486
443.145	478.365
446.038	820.518
448.931	632.008
451.824	801.082
454.716	920.309
457.609	1119.7
460.502	1040.42
463.394	1090.82
466.287	1058.13
469.18	1079.45
472.072	846.16
474.965	714.707
477.858	584.287
480.75	606.852
483.643	685.445
486.536	772.805
489.429	881.318
492.321	926.695
495.214	989.66
498.107	1364.99
500.999	1548.63
503.892	1788.81
506.785	1532.9
509.678	1018.72
512.57	744.814
515.463	357.318
518.356	179.346
521.248	95.584
524.141	192.691
527.034	21.5195
529.926	59.2129
532.819	209.715
535.712	77.3125
538.604	223.445
541.497	91.0156
544.39	47.9766
547.283	83.2305
550.175	65.7383
553.068	194.881
555.961	128.545
558.853	418.426
561.746	323.81
564.639	373.75
567.531	469.647
570.424	246.738
573.317	469.182
576.21	558.07
579.102	533.617
581.995	458.842
584.888	482.799
587.78	646.963
590.673	542.484
593.566	658.701
596.458	790.846
599.351	831.66
602.244	860.213
605.136	693.902
608.029	829.764
610.922	1006.97
613.815	1062.76
616.707	969.479
619.6	848.525
622.493	561.305
625.385	425.445
628.278	245.371
631.171	139.639
634.063	146.133
636.956	166.978
639.849	122.394
642.742	86.6426
645.634	73.707
648.527	119.684
651.42	88.1797
654.312	148.809
657.205	11.4961
660.098	137.125
662.99	93.3828
665.883	112.832
668.776	70.6328
671.669	41.3867
674.561	92.4023
677.454	34.8867
680.347	131.785
683.239	235.086
686.132	98.5195
689.025	163.856
691.918	155.137
694.81	8.59766
697.703	37.0234
700.596	28.5469
703.488	301.234
706.381	232.519
709.274	141.281
712.166	265.906
715.059	348.246
717.952	231.742
720.845	253.449
723.737	235.859
726.63	253.457
729.523	246.703
732.415	161.402
735.308	53.2812
738.201	155.555
741.093	14.1211
743.986	209.867
746.879	215.027
749.771	214.199
752.664	264.867
755.557	101.91
758.45	32.707
761.342	48.207
764.235	112.199
767.128	246.211
770.02	303.816
772.913	368.352
775.806	206.871
778.698	173.539
781.591	166.18
784.484	269.531
787.377	197.551
790.269	185.301
793.162	152.07
796.055	203.863
798.947	209.066
801.84	314.777
804.733	335.125
807.625	313.812
810.518	402.852
813.411	299.066
816.304	291.133
819.196	172.848
822.089	346.301
824.982	434.543
827.874	343.539
830.767	315.008
833.66	216.164
836.552	149.844
839.445	220.769
842.338	255.297
845.231	277.199
848.123	194.516
851.016	170.574
853.909	233.363
856.801	198.352
859.694	235.027
862.587	176.672
865.479	156.398
868.372	258.297
871.265	21.2031
874.158	34.7891
877.05	126.664
879.943	252.633
882.836	344.234
885.728	159.004
888.621	173.387
891.514	51.0664
894.406	167.766
897.299	250.531
900.192	255.891
903.085	154.758
905.977	7.02734
908.87	97.3672
911.763	31.5312
914.655	145.113
917.548	76.1367
920.441	139.406
923.333	122.996
926.226	56.4609
929.119	0.492188
932.011	51.5664
934.904	210.699
937.797	42.9258
940.69	1.58594
943.582	87.1602
946.475	371.305
949.368	95.8633
952.26	224.266
955.153	493.5
958.046	652.43
960.938	808.812
963.831	1330.82
966.724	1791.84
969.617	2599.32
972.509	3059.33
975.402	3519.31
978.295	3954.99
981.187	4153.24
984.08	4101.61
986.973	3934.4
989.865	3731.02
992.758	3555.87
995.651	3384.79
998.544	3584.97
1001.44	3460.75
1004.33	3435.98
1007.22	3305.46
1010.11	3036.81
1013.01	3007.46
1015.9	3068.36
1018.79	2922.92
1021.68	2774.98
1024.58	2657.23
1027.47	2244.37
1030.36	2092.27
1033.26	1850.96
1036.15	1469.2
1039.04	986.512
1041.93	919.871
1044.83	671.059
1047.72	487.871
1050.61	120.555
1053.51	101.191
1056.4	96.7031
1059.29	75.4844
1062.18	150.25
1065.08	179.625
1067.97	87.2031
1070.86	116.082
1073.75	34.5273
1076.65	242.211
1079.54	120.562
1082.43	206.25
1085.33	170.156
1088.22	208.644
1091.11	236.035
1094	371.504
1096.89	614.992
1099.79	554.512
1102.68	628.746
1105.57	817.582
1108.47	649.18
1111.36	902.391
1114.25	855.578
1117.14	704.769
1120.04	503.332
1122.93	292.394
1125.82	266.574
1128.71	216.176
1131.61	137.184
1134.5	359.785
1137.39	110.566
1140.29	59.207
1143.18	37.6875
1146.07	82.5938
1148.96	99.6836
1151.86	291.688
1154.75	52.2031
1157.64	109.871
1160.54	115.34
1163.43	33.9414
1166.32	77.3281
1169.21	66.7812
1172.11	52.6602
1175	286.352
1177.89	54.8867
1180.78	49.3359
1183.68	147.934
1186.57	368.121
1189.46	480.406
1192.35	449.254
1195.25	134.199
1198.14	385.703
1201.03	167.195
1203.92	321.699
1206.82	388.898
1209.71	386.566
1212.6	264.941
1215.5	258.981
1218.39	344.019
1221.28	202.633
1224.17	153.457
1227.07	188.367
1229.96	63.5664
1232.85	89.3281
1235.74	91.7109
1238.64	411.586
1241.53	318.238
1244.42	285.769
1247.32	237.836
1250.21	405.762
1253.1	409.082
1255.99	416.519
1258.89	238.188
1261.78	297.121
1264.67	23.2539
1267.57	227.769
1270.46	136.172
1273.35	227.566
1276.24	122.164
1279.13	162.211
1282.03	262.441
