Measurement: Raman, 780 nm, unoriented, Raman Data Processed
Mineral: Plumbogummite
Rruff sample: R070700
Ideal chemistry: Pb^2+^Al_3_(PO_4_)(PO_3_OH)(OH)_6_
Locality: Yangshuo, Guangxi Autonomous Region, China
Source: Ken Roberts
Description: Grayish blue botryoidal crust associated with pale yellow pyromorphite
Raman shift (cm-1)	intensity
162.914	0
165.807	7.24609
168.699	121.113
171.592	303.758
174.485	356.12
177.377	450.654
180.27	733.462
183.163	900.882
186.055	1071.76
188.948	1077.78
191.841	891.068
194.734	659.857
197.626	337.566
200.519	115.348
203.412	117.588
206.304	53.477
209.197	23.0395
212.09	26.7827
214.982	61.081
217.875	74.1714
220.768	209.248
223.661	288.14
226.553	431.84
229.446	610.095
232.339	831.217
235.231	1064.2
238.124	1278.6
241.017	1655.85
243.91	1769.27
246.802	2053.38
249.695	2334.69
252.588	2174.56
255.48	2148.69
258.373	1974.62
261.266	1573.52
264.158	1501.85
267.051	1305.81
269.944	1217.73
272.837	1130.88
275.729	1149.68
278.622	1040.55
281.515	918.087
284.407	710.591
287.3	576.798
290.193	453.857
293.085	364.824
295.978	213.708
298.871	134.656
301.764	136.017
304.656	65.0591
307.549	1.18701
310.442	15.5381
313.334	9.30273
316.227	17.7754
319.12	55.1909
322.012	10.8105
324.905	0.563477
327.798	13.6128
330.69	53.2974
333.583	42.4917
336.476	88.8037
339.369	63.3335
342.261	149.846
345.154	161.988
348.047	272.934
350.939	236.139
353.832	360.627
356.725	311.652
359.618	542.97
362.51	549.385
365.403	554.585
368.296	618.277
371.188	576.469
374.081	515.107
376.974	401.914
379.866	451.676
382.759	401.206
385.652	334.285
388.545	251.664
391.437	149.964
394.33	192.488
397.223	124.372
400.115	77.231
403.008	57.5474
405.901	58.1065
408.793	11.1929
411.686	0.588867
414.579	5.4668
417.471	14.2959
420.364	55.0425
423.257	10.376
426.15	16.123
429.042	63.5703
431.935	48.084
434.828	131.902
437.72	115.219
440.613	209.677
443.506	247.311
446.399	298.894
449.291	404.711
452.184	415.697
455.077	519.295
457.969	603.437
460.862	651.083
463.755	623.199
466.647	620.553
469.54	631.866
472.433	530.479
475.325	439.06
478.218	374.749
481.111	358.559
484.004	261.78
486.896	355.098
489.789	373.7
492.682	480.435
495.574	541.778
498.467	704.226
501.36	768.213
504.252	817.253
507.145	752.596
510.038	596.074
512.931	329.933
515.823	207.54
518.716	93.2002
521.609	47.9409
524.501	10.2085
527.394	13.7495
530.287	7.14307
533.179	16.2222
536.072	4.67139
538.965	16.2964
541.858	47.6909
544.75	12.2891
547.643	39.7856
550.536	46.5591
553.428	81.709
556.321	137.508
559.214	126.798
562.106	135.806
564.999	170.677
567.892	169.223
570.785	207.574
573.677	302.192
576.57	234.107
579.463	269.026
582.355	280.749
585.248	238.412
588.141	239.476
591.034	268.523
593.926	300.446
596.819	318.334
599.712	350.788
602.604	373.878
605.497	487.413
608.39	570.317
611.282	617.123
614.175	602.492
617.068	549.699
619.961	448.47
622.853	289.894
625.746	247.704
628.639	205.052
631.531	160.72
634.424	162.399
637.317	171.17
640.209	39.0225
643.102	10.5703
645.995	34.0855
648.888	64.6499
651.78	33.5835
654.673	31.9898
657.566	38.4937
660.458	26.2163
663.351	2.95752
666.244	40.6148
669.136	17.4434
672.029	11.0532
674.922	51.519
677.814	31.7476
680.707	36.3272
683.6	48.4761
686.493	10.5562
689.385	33.6763
692.278	45.3989
695.171	80.4399
698.063	61.2676
700.956	16.8193
703.849	16.1514
706.741	48.5679
709.634	17.7695
712.527	13.5913
715.42	52.9282
718.312	116.908
721.205	68.5913
724.098	43.5527
726.99	15.3852
729.883	53.261
732.776	11.5586
735.668	41.8359
738.561	38.7739
741.454	18.9143
744.347	76.4678
747.239	29.0979
750.132	52.7866
753.025	43.981
755.917	17.5286
758.81	52.25
761.703	25.1338
764.596	13.4927
767.488	15.0454
770.381	62.7305
773.274	25.9988
776.166	2.84106
779.059	39.1121
781.952	55.2878
784.844	57.9324
787.737	19.2869
790.63	31.7771
793.523	59.1628
796.415	25.6582
799.308	55.6355
802.201	63.8687
805.093	23.9724
807.986	112.513
810.879	73.6924
813.771	106.694
816.664	73.5662
819.557	66.1704
822.449	49.553
825.342	85.2366
828.235	81.8606
831.128	68.6448
834.02	65.4512
836.913	77.5308
839.806	63.6257
842.698	64.4329
845.591	129.738
848.484	32.7922
851.376	62.5261
854.269	57.3298
857.162	19.9565
860.055	43.9504
862.947	51.2905
865.84	52.0503
868.733	30.5908
871.625	40.6465
874.518	27.7761
877.411	91.6912
880.303	50.5483
883.196	82.3489
886.089	64.8425
888.982	54.0444
891.874	79.3215
894.767	10.5461
897.66	35.4016
900.552	41.1614
903.445	0.878174
906.338	10.1475
909.231	39.3838
912.123	51.3606
915.016	27.4597
917.909	11.2634
920.801	16.1392
923.694	25.876
926.587	9.93164
929.479	15.8916
932.372	2.08057
935.265	14.3565
938.158	13.8765
941.05	3.92481
943.943	8.10449
946.836	16.0864
949.728	68.2061
952.621	128.79
955.514	133.259
958.406	290.754
961.299	406.203
964.192	500.697
967.085	795.332
969.977	995.744
972.87	1284.95
975.763	1469.74
978.655	1677.15
981.548	1717.45
984.441	1708.79
987.333	1692.63
990.226	1571.26
993.119	1526.36
996.011	1444.85
998.904	1381.36
1001.8	1302.86
1004.69	1284.4
1007.58	1262.56
1010.48	1189.57
1013.37	1161.66
1016.26	1114.77
1019.15	1128.26
1022.05	1104.81
1024.94	1045.49
1027.83	923.622
1030.72	857.332
1033.62	673.015
1036.51	534.747
1039.4	485.222
1042.3	357.288
1045.19	237.906
1048.08	232.053
1050.97	143.484
1053.87	85.3159
1056.76	80.8633
1059.65	58.2549
1062.54	59.3887
1065.44	2.979
1068.33	12.8291
1071.22	10.2373
1074.11	3.92529
1077.01	6.90576
1079.9	11.7788
1082.79	2.80566
1085.68	30.5064
1088.58	35.0356
1091.47	159.198
1094.36	125.5
1097.26	206.082
1100.15	183.486
1103.04	259.178
1105.93	281.655
1108.83	307.387
1111.72	242.042
1114.61	255.057
1117.51	178.595
1120.4	154.643
1123.29	65.7459
1126.18	58.9773
1129.08	38.8152
1131.97	32.4255
1134.86	4.24585
1137.75	2.88306
1140.65	1.73633
1143.54	11.9856
1146.43	10.3249
1149.33	0.7146
1152.22	6.97363
1155.11	4.7312
1158	19.2212
1160.89	53.4163
1163.79	79.1155
1166.68	46.0667
1169.57	22.314
1172.47	78.4565
1175.36	89.3118
1178.25	88.1736
1181.14	68.1794
1184.04	88.5542
1186.93	83.9915
1189.82	78.6814
1192.71	90.9788
1195.61	114.897
1198.5	57.0947
1201.39	86.0696
1204.29	42.8323
1207.18	47.4438
1210.07	54.3328
1212.96	62.8928
1215.86	46.0442
1218.75	24.0276
1221.64	57.1328
1224.54	24.824
1227.43	69.677
1230.32	42.4797
1233.21	56.783
1236.11	34.6116
1239	63.498
1241.89	61.0769
1244.78	72.3071
1247.68	53.3047
1250.57	65.5644
1253.46	38.0093
1256.35	48.3293
1259.25	57.8552
1262.14	60.0198
1265.03	46.7856
1267.92	53.3572
1270.82	12.8799
1273.71	0.258301
1276.6	24.7041
1279.5	0.610596
