Measurement: Raman, 532 nm, unoriented, Raman Data Processed
Mineral: Plumbogummite
Rruff sample: R050458
Ideal chemistry: Pb^2+^Al_3_(PO_4_)(PO_3_OH)(OH)_6_
Locality: Cornwall, England
Source: University of Arizona Mineral Museum
Description: Grayish blue botryoidal crust associated with yellow-green pyromorphite
Measured chemistry: Pb_1.00_Al_3.00_((P_0.81_As_0.19_)_Î£=1_O_4_)(P_1.00_O_3_OH)(OH)_6_
Raman shift (cm-1)	intensity
159.468	0
162.361	13.7961
165.254	2.24756
168.147	20.8726
171.039	40.0332
173.932	30.2734
176.825	52.4973
179.717	69.9487
182.61	68.7422
185.503	82.834
188.395	56.1228
191.288	52.1631
194.181	40.1162
197.073	17.4932
199.966	1.75439
202.859	13.4316
205.752	1.13574
208.644	1.69336
211.537	6.82031
214.43	10.708
217.322	34.2471
220.215	45.4756
223.108	85.5015
226	118.93
228.893	133.777
231.786	163.835
234.679	194.929
237.571	256.72
240.464	269.522
243.357	295.453
246.249	288.267
249.142	297.164
252.035	301.034
254.928	279.118
257.82	266.099
260.713	242.331
263.606	217.427
266.498	204.633
269.391	184.031
272.284	174.18
275.176	177.605
278.069	175.884
280.962	169.819
283.854	128.371
286.747	125.401
289.64	99.0303
292.533	97.0991
295.425	74.3267
298.318	51.6094
301.211	24.7202
304.103	24.3867
306.996	36.3935
309.889	11.0005
312.781	12.6851
315.674	3.55225
318.567	1.60107
321.46	5.36279
324.352	9.67578
327.245	3.77685
330.138	12.2212
333.03	18.1113
335.923	17.5288
338.816	7.23291
341.709	5.64258
344.601	34.4727
347.494	45.7207
350.387	65.0195
353.279	79.7119
356.172	89.5112
359.065	96.7104
361.957	100.988
364.85	92.6465
367.743	73.6958
370.635	75.6499
373.528	78.4434
376.421	77.9893
379.314	63.2017
382.206	65.2607
385.099	51.4575
387.992	46.8364
390.884	56.6284
393.777	61.8398
396.67	39.5962
399.562	18.6968
402.455	9.73975
405.348	0.752441
408.241	16.0723
411.133	12.2422
414.026	34.478
416.919	20.5278
419.811	11.6611
422.704	6.89551
425.597	4.85205
428.49	5.89648
431.382	12.6831
434.275	13.9067
437.168	12.8677
440.06	28.9946
442.953	29.127
445.846	39.9424
448.738	41.3569
451.631	22.165
454.524	32.0596
457.416	45.7749
460.309	52.5083
463.202	43.2407
466.095	50.1401
468.987	49.2876
471.88	41.3843
474.773	23.7173
477.665	24.023
480.558	18.688
483.451	23.9038
486.344	28.2485
489.236	43.1982
492.129	29.9185
495.022	67.2476
497.914	78.2183
500.807	63.1079
503.7	80.2041
506.592	60.8389
509.485	74.333
512.378	28.897
515.27	20.2329
518.163	12.2383
521.056	16.8545
523.949	45.7715
526.841	31.2686
529.734	36.3672
532.627	27.2456
535.519	28.8706
538.412	38.2949
541.305	32.9775
544.197	31.2764
547.09	16.144
549.983	15.3071
552.876	0.624023
555.768	0.013184
558.661	1.24756
561.554	20.6489
564.446	6.53223
567.339	8.91895
570.232	14.3555
573.125	30.458
576.017	25.9429
578.91	14.2524
581.803	45.2407
584.695	29.0488
587.588	49.1753
590.481	31.1709
593.373	46.2881
596.266	36.8481
599.159	55.3477
602.052	47.4341
604.944	71.2827
607.837	104.251
610.73	117.696
613.622	120.83
616.515	74.4033
619.408	50.8355
622.3	18.686
625.193	5.38232
628.086	21.668
630.979	29.9727
633.871	12.6714
636.764	34.0005
639.657	14.6821
642.549	16.6939
645.442	7.63477
648.335	6.83008
651.227	19.0571
654.12	18.3667
657.013	1.18213
659.905	21.2129
662.798	3.58935
665.691	5.0542
668.584	7.32324
671.476	37.0278
674.369	25.3389
677.262	23.2124
680.154	23.9062
683.047	28.603
685.94	45.2817
688.832	22.9546
691.725	40.5195
694.618	35.1216
697.511	33.9224
700.403	30.688
703.296	12.2153
706.189	53.4609
709.081	38.1821
711.974	32.4556
714.867	63.7964
717.76	48.7012
720.652	26.6118
723.545	26.2202
726.438	25.0981
729.33	36.148
732.223	32.2949
735.116	10.0747
738.008	7.20801
740.901	35.7363
743.794	29.3682
746.687	13.8765
749.579	0.205078
752.472	7.71289
755.365	9.5918
758.257	18.4297
761.15	8.08203
764.043	36.4536
766.935	23.6675
769.828	31.4477
772.721	22.0054
775.614	29.8945
778.506	42.1313
781.399	51.5884
784.292	19.6089
787.184	40.229
790.077	24.7651
792.97	10.8091
795.862	26.4419
798.755	27.7441
801.648	16.8398
804.54	12.3364
807.433	27.2158
810.326	28.9346
813.219	1.99951
816.111	24.5474
819.004	13.415
821.897	20.4121
824.789	1.59228
827.682	5.20215
830.575	12.0635
833.467	3.93359
836.36	34.145
839.253	32.1807
842.146	53.8804
845.038	65.1968
847.931	36.5596
850.824	44.3389
853.716	58.5127
856.609	74.1899
859.502	85.085
862.394	118.473
865.287	100.139
868.18	77.1279
871.073	101.714
873.965	108.383
876.858	92.9233
879.751	123.837
882.643	126.622
885.536	110.049
888.429	137.083
891.322	142.846
894.214	117.194
897.107	99.5791
900	107.243
902.892	93.5078
905.785	94.4077
908.678	79.2295
911.57	61.9023
914.463	44.1699
917.356	53.2886
920.249	45.9346
923.141	32.4243
926.034	45.3852
928.927	5.74756
931.819	10.3779
934.712	3.39844
937.605	23.2231
940.497	19.9487
943.39	10.0586
946.283	4.71729
949.176	2.07959
952.068	18.9717
954.961	53.6509
957.854	68.3335
960.746	91.5049
963.639	103.685
966.532	146.518
969.424	215.234
972.317	228.68
975.21	284.978
978.102	366.159
980.995	393.164
983.888	357.19
986.781	352.777
989.673	311.666
992.566	293.676
995.459	275.986
998.351	274.643
1001.24	255.497
1004.14	227.802
1007.03	243.989
1009.92	258.756
1012.82	230.414
1015.71	214.264
1018.6	201.944
1021.49	216.598
1024.39	192.995
1027.28	170.524
1030.17	151.064
1033.06	94.9668
1035.96	131.356
1038.85	103.477
1041.74	89.2959
1044.63	93.7227
1047.53	69.0586
1050.42	51.7793
1053.31	20.248
1056.2	30.5391
1059.1	30.3301
1061.99	42.5469
1064.88	56.5166
1067.78	20.2705
1070.67	32.0322
1073.56	5.55566
1076.45	24.6924
1079.35	3.3584
1082.24	23.0244
1085.13	13.7441
1088.03	28.54
1090.92	16.4619
1093.81	21.6836
1096.7	24.8906
1099.6	58.3603
1102.49	73.0234
1105.38	79.0713
1108.27	83.5166
1111.17	62.0498
1114.06	68.3418
1116.95	88.4609
1119.85	59.3252
1122.74	46.0508
1125.63	44.5703
1128.52	37.5537
1131.42	48.3623
1134.31	58.0254
1137.2	52.9004
1140.09	32.7783
1142.99	55.4199
1145.88	0.053711
1148.77	10.8223
1151.66	21.3906
1154.56	11.669
1157.45	1.47852
1160.34	3.98047
1163.23	7.32715
1166.13	41.7656
1169.02	13.8887
1171.91	6.72559
1174.81	26.3809
1177.7	33.4893
1180.59	37.1504
1183.48	9.2002
1186.38	17.4912
1189.27	22.0498
1192.16	43.3643
1195.06	19.042
1197.95	42.9326
1200.84	60.5322
1203.73	25.7441
1206.63	45.294
1209.52	33.7637
1212.41	62.4902
1215.3	66.9228
1218.2	59.127
1221.09	68.8887
1223.98	42.0234
1226.88	22.3086
1229.77	17.3633
1232.66	9.66504
1235.55	32.1553
1238.44	38.1416
1241.34	26.5498
1244.23	31.416
1247.12	10.3857
1250.02	16.1055
1252.91	50.292
1255.8	21.1523
1258.69	16.4902
1261.59	46.1728
1264.48	40.9004
1267.37	20.1113
1270.27	61.584
1273.16	42.8945
1276.05	31.7168
1278.94	34.7197
1281.84	13.0332
