Measurement: Raman, 532 nm, unoriented, Raman Data Processed
Mineral: Polydymite
Rruff sample: R070377
Ideal chemistry: Ni^2+^Ni^3+^_2_S^2-^_4_
Locality: Shamva mine, Mashonaland Central, Zimbabwe
Source: James Shigley
Description: Grey metallic massive associated with clinochlore
Raman shift (cm-1)	intensity
136.163	0
139.537	73.3004
142.912	17.526
146.287	50.2227
149.662	5.34512
153.037	25.508
156.411	54.0273
159.786	33.5648
163.161	39.8313
166.536	32.35
169.911	49.1759
173.286	21.6729
176.66	23.5307
180.035	3.19299
183.41	3.78212
186.785	34.3749
190.16	64.6355
193.535	12.4999
196.909	0.43869
200.284	26.9257
203.659	26.1567
207.034	10.5257
210.409	14.5598
213.783	15.8903
217.158	40.8962
220.533	40.3703
223.908	56.5147
227.283	48.5234
230.657	31.375
234.032	13.1642
237.407	5.83243
240.782	3.94415
244.157	9.42627
247.532	0.064651
250.906	2.77502
254.281	4.95894
257.656	17.6495
261.031	8.9445
264.406	20.0897
267.781	18.0948
271.155	31.0915
274.53	57.2396
277.905	98.6665
281.28	140.207
284.655	221.143
288.029	298.131
291.404	267.021
294.779	176.13
298.154	98.7661
301.529	53.7053
304.904	22.2492
308.278	22.0829
311.653	7.47644
315.028	9.39088
318.403	10.7861
321.778	4.30583
325.152	3.52954
328.527	14.0749
331.902	11.5492
335.277	14.1196
338.652	39.1394
342.026	27.4778
345.401	14.7831
348.776	21.4791
352.151	13.3449
355.526	6.59732
358.901	7.72659
362.275	10.4449
365.65	6.16907
369.025	22.1505
372.4	24.8381
375.775	50.0457
379.149	48.9384
382.524	57.94
385.899	46.5442
389.274	25.7025
392.649	5.29329
396.024	8.45511
399.398	0.61087
402.773	9.05577
406.148	0.307526
409.523	6.48305
412.898	12.1601
416.272	3.26945
419.647	0.389572
423.022	15.9738
426.397	6.26274
429.772	10.4044
433.147	14.4187
436.521	0.037628
439.896	7.65265
443.271	5.32887
446.646	8.95741
450.021	12.426
453.396	0.868439
456.77	10.7146
460.145	10.8532
463.52	22.8187
466.895	19.7814
470.27	23.2478
473.644	24.5697
477.019	10.0366
480.394	21.8857
483.769	18.5662
487.144	17.1039
490.519	8.4698
493.893	1.68092
497.268	11.0503
500.643	10.4944
504.018	5.83366
507.393	19.8778
510.767	23.0401
514.142	10.6103
517.517	7.19303
520.892	5.0592
524.267	8.87622
527.641	3.7527
531.016	0.043137
534.391	11.7367
537.766	8.05983
541.141	13.4604
544.516	18.2227
547.89	6.34763
551.265	10.3885
554.64	6.63573
558.015	16.0761
561.39	25.2484
564.764	11.9538
568.139	17.3186
571.514	8.14547
574.889	11.0422
578.264	5.8006
581.639	19.1579
585.013	6.26032
588.388	25.6366
591.763	7.79952
595.138	11.2071
598.513	8.91005
601.888	11.0725
605.262	11.3187
608.637	7.56
612.012	12.0075
615.387	5.30527
618.762	3.5181
622.136	3.16866
625.511	7.97285
628.886	5.3035
632.261	18.0959
635.636	12.7356
639.01	5.47793
642.385	1.61054
645.76	16.7214
649.135	16.1592
652.51	6.86156
655.885	10.0221
659.259	4.61459
662.634	2.37748
666.009	2.08879
669.384	3.70491
672.759	7.60173
676.134	15.0209
679.508	19.7717
682.883	18.7315
686.258	2.71453
689.633	8.95596
693.008	3.26125
696.382	14.884
699.757	12.0785
703.132	6.86344
706.507	17.5348
709.882	1.69002
713.256	12.8722
716.631	11.0734
720.006	10.2362
723.381	9.51914
726.756	9.83904
730.131	7.71683
733.505	13.0243
736.88	4.17958
740.255	20.8155
743.63	26.8377
747.005	15.0247
750.38	14.4715
753.754	11.0818
757.129	28.4749
760.504	13.3866
763.879	14.2766
767.254	14.1918
770.628	11.1531
774.003	6.92516
777.378	3.03696
780.753	0.180161
784.128	10.7634
787.503	10.7668
790.877	9.35918
794.252	15.474
797.627	9.27866
801.002	12.3635
804.377	17.6993
807.751	19.9609
811.126	6.27042
814.501	8.71915
817.876	3.7095
821.251	12.1951
824.625	5.19965
828	6.79859
831.375	4.17043
834.75	13.1632
838.125	15.9537
841.5	19.1999
844.874	12.639
848.249	15.3784
851.624	16.8145
854.999	0.739098
858.374	16.9093
861.749	13.0129
865.123	15.0725
868.498	0.959717
871.873	9.97843
875.248	7.8333
878.623	4.59452
881.997	5.32244
885.372	13.3643
888.747	10.0663
892.122	11.9621
895.497	12.3689
898.871	8.12785
902.246	2.70412
905.621	18.0832
908.996	15.7611
912.371	1.8128
915.746	19.8316
919.12	27.8202
922.495	18.609
925.87	19.3435
929.245	11.7388
932.62	19.7088
935.995	7.70931
939.369	5.55489
942.744	9.8378
946.119	3.74949
949.494	13.5169
952.869	2.13915
956.243	6.28826
959.618	13.7952
962.993	13.3291
966.368	2.45952
969.743	12.6801
973.117	11.9494
976.492	13.4133
979.867	20.4595
983.242	9.12657
986.617	19.0091
989.992	16.7995
993.366	13.9841
996.741	11.4606
1000.12	5.54188
1003.49	13.1104
1006.87	10.1282
1010.24	11.266
1013.62	2.45862
1016.99	2.77311
1020.37	4.16631
1023.74	14.6
1027.12	5.66811
1030.49	6.03232
1033.86	13.595
1037.24	17.0976
1040.61	23.8806
1043.99	27.2992
1047.36	15.9213
1050.74	15.1072
1054.11	3.41129
1057.49	20.3444
1060.86	28.1278
1064.24	23.5067
1067.61	11.8731
1070.99	6.73738
1074.36	17.1304
1077.74	17.4746
1081.11	15.3287
1084.49	16.1558
1087.86	26.0821
1091.24	13.9738
1094.61	0.27459
1097.99	8.46671
1101.36	6.19048
1104.73	1.66447
1108.11	12.8452
1111.48	8.37629
1114.86	24.0719
1118.23	12.4098
1121.61	7.02341
1124.98	12.9538
1128.36	17.5114
1131.73	21.6724
1135.11	24.0106
1138.48	9.47035
1141.86	2.50014
1145.23	3.19159
1148.61	4.78215
1151.98	16.8101
1155.36	2.31188
1158.73	5.6067
1162.11	15.0955
1165.48	5.13164
1168.86	5.09576
1172.23	11.5743
1175.61	8.74648
1178.98	0.568237
1182.36	0.600952
1185.73	15.1721
1189.11	12.0641
1192.48	12.6292
1195.86	19.6807
1199.23	8.88477
1202.61	16.4711
1205.98	20.5925
1209.36	19.3321
1212.73	6.26354
1216.1	16.333
1219.48	1.80327
1222.85	16.74
1226.23	4.407
1229.6	0.544769
1232.98	14.9938
1236.35	10.5959
1239.73	10.2096
1243.1	22.7242
1246.48	6.89533
1249.85	14.6906
1253.23	14.7988
1256.6	10.8102
1259.98	11.9017
1263.35	13.6346
1266.73	14.4153
1270.1	19.7714
1273.48	11.2127
1276.85	17.4299
1280.23	9.70695
1283.6	26.0977
1286.98	13.0375
1290.35	4.0214
1293.72	8.12421
1297.1	4.31361
1300.47	21.4259
1303.85	11.8008
1307.22	9.63434
