Measurement: Raman, 532 nm, unoriented, Raman Data Processed
Mineral: Polydymite
Rruff sample: R050609
Ideal chemistry: Ni^2+^Ni^3+^_2_S^2-^_4_
Locality: Dry Nickel mine, Bindura, South Rhodesia, Rhodesia
Source: University of Arizona Mineral Museum
Description: Reddish-bronze tarnished metallic fragment associated with green clinochlore and white actinolite
Measured chemistry: (Ni_0.85_Fe_0.15_)Ni_2.00_S_4.00_
Raman shift (cm-1)	intensity
145.595	0
148.969	6.9718
152.344	8.53329
155.719	7.6414
159.094	2.52859
162.469	2.18291
165.843	0.381226
169.218	1.5111
172.593	1.80918
175.968	0.350998
179.343	1.24259
182.718	0.391382
186.092	1.50778
189.467	1.39571
192.842	0.467236
196.217	1.02021
199.592	0.342146
202.966	0.920891
206.341	0.569582
209.716	1.11867
213.091	0.336853
216.466	0.238455
219.84	0.732866
223.215	1.90275
226.59	4.47136
229.965	2.86573
233.34	3.56147
236.715	2.6372
240.089	3.21897
243.464	2.2945
246.839	1.99617
250.214	1.67479
253.589	0.703505
256.964	1.8031
260.338	1.35668
263.713	0.407808
267.088	0.485413
270.463	2.45065
273.838	2.63293
277.212	3.42491
280.587	4.04938
283.962	4.83114
287.337	6.79442
290.712	10.2169
294.087	11.8168
297.461	11.5237
300.836	12.3641
304.211	9.98482
307.586	7.76487
310.961	6.94925
314.336	4.02606
317.71	2.59731
321.085	1.04223
324.46	1.39401
327.835	0.657209
331.21	0.3262
334.584	0.094404
337.959	0.851625
341.334	1.82384
344.709	5.51806
348.084	8.20271
351.459	8.08057
354.833	7.35158
358.208	5.2276
361.583	4.44864
364.958	3.66905
368.333	2.64457
371.707	2.76664
375.082	5.89326
378.457	8.15515
381.832	10.5903
385.207	12.1054
388.582	15.2157
391.956	12.1067
395.331	8.77597
398.706	6.01347
402.081	3.467
405.456	3.09814
408.83	1.69864
412.205	0.412487
415.58	0.367924
418.955	1.41236
422.33	0.265247
425.705	1.0951
429.079	0.874411
432.454	1.46945
435.829	0.47093
439.204	0.379292
442.579	0.209354
445.954	1.51578
449.328	0.652649
452.703	0.933521
456.078	0.886295
459.453	1.54358
462.828	0.909384
466.202	0.818741
469.577	1.91017
472.952	1.02908
476.327	0.609482
479.702	0.631161
483.077	1.74293
486.451	1.0769
489.826	1.48649
493.201	0.343992
496.576	1.25833
499.951	0.476761
503.325	2.17081
506.7	1.17521
510.075	0.414862
513.45	1.76622
516.825	1.06142
520.2	0.456697
523.574	1.22535
526.949	1.5765
530.324	1.29289
533.699	1.30479
537.074	0.085026
540.448	1.1132
543.823	1.5963
547.198	1.11084
550.573	1.68715
553.948	2.52236
557.323	0.102652
560.697	1.35871
564.072	1.59608
567.447	2.09518
570.822	0.739758
574.197	1.327
577.572	1.90293
580.946	0.102583
584.321	1.07425
587.696	0.157936
591.071	0.583033
594.446	0.819223
597.821	0.763084
601.195	1.48981
604.57	1.311
607.945	1.33039
611.32	1.23808
614.695	1.23124
618.069	0.603342
621.444	1.46522
624.819	0.231203
628.194	0.719904
631.569	0.406687
634.943	0.901054
638.318	1.17281
641.693	1.03118
645.068	0.384691
648.443	0.597563
651.818	0.80567
655.192	1.94627
658.567	1.25855
661.942	1.0765
665.317	0.170536
668.692	0.229109
672.067	0.679523
675.441	0.604372
678.816	1.32529
682.191	0.029947
685.566	0.36912
688.941	0.755466
692.316	0.50317
695.69	0.116426
699.065	0.51759
702.44	1.28724
705.815	1.92353
709.19	1.20069
712.564	1.28749
715.939	1.34715
719.314	0.998434
722.689	0.647964
726.064	1.16933
729.438	0.313679
732.813	0.604692
736.188	0.841974
739.563	0.711094
742.938	1.34312
746.313	0.412054
749.687	1.0595
753.062	0.811415
756.437	0.635509
759.812	2.0164
763.187	1.0221
766.562	0.982832
769.936	1.73239
773.311	0.826059
776.686	0.223343
780.061	0.427679
783.436	0.277533
786.811	1.02327
790.185	0.596508
793.56	1.38688
796.935	0.848421
800.31	1.97376
803.685	0.81518
807.059	1.51329
810.434	1.72901
813.809	0.039133
817.184	1.64169
820.559	1.37579
823.933	1.66479
827.308	2.32145
830.683	1.73392
834.058	1.96076
837.433	1.00486
840.808	1.5161
844.182	1.76265
847.557	2.13648
850.932	2.09288
854.307	1.85905
857.682	1.99384
861.057	1.94539
864.431	2.60907
867.806	1.92877
871.181	1.86701
874.556	2.65417
877.931	1.98909
881.306	1.42711
884.68	0.93853
888.055	1.71805
891.43	1.39491
894.805	1.93443
898.18	1.76171
901.554	1.39116
904.929	0.261553
908.304	0.399673
911.679	0.922144
915.054	0.613037
918.428	1.44976
921.803	1.13832
925.178	1.56356
928.553	0.850872
931.928	0.499882
935.303	0.930784
938.677	1.06819
942.052	0.166613
945.427	1.03379
948.802	0.3836
952.177	0.241812
955.552	0.865431
958.926	0.305706
962.301	0.574047
965.676	0.824966
969.051	0.56266
972.426	1.05164
975.801	1.54658
979.175	1.26489
982.55	1.82889
985.925	2.19494
989.3	2.82947
992.675	2.65595
996.049	3.66223
999.424	4.74154
1002.8	4.02369
1006.17	4.64072
1009.55	5.23762
1012.92	4.50939
1016.3	3.41438
1019.67	2.52404
1023.05	2.392
1026.42	2.33532
1029.8	2.32321
1033.17	1.5416
1036.55	1.70543
1039.92	1.10886
1043.3	0.155787
1046.67	0.857307
1050.05	0.276686
1053.42	1.61266
1056.8	1.20147
1060.17	1.50075
1063.55	0.871624
1066.92	1.2451
1070.3	0.617399
1073.67	0.836319
1077.05	1.26817
1080.42	0.359056
1083.8	2.05072
1087.17	1.57569
1090.54	0.39913
1093.92	1.20942
1097.29	1.21704
1100.67	0.141047
1104.04	0.861412
1107.42	0.909807
1110.79	0.478132
1114.17	1.9613
1117.54	1.02982
1120.92	1.90998
1124.29	0.713194
1127.67	2.73153
1131.04	0.701803
1134.42	0.454138
1137.79	0.443712
1141.17	1.21488
1144.54	0.881639
1147.92	1.24941
1151.29	0.752607
1154.67	0.762234
1158.04	1.13017
1161.42	1.22572
1164.79	0.635687
1168.16	0.907328
1171.54	0.347218
1174.91	0.449276
1178.29	0.221008
1181.66	1.00355
1185.04	1.17406
1188.41	1.59144
1191.79	1.22812
1195.16	0.613569
1198.54	0.553421
1201.91	0.55308
1205.29	0.114645
1208.66	1.7179
1212.04	1.16455
1215.41	0.904825
1218.79	0.923286
1222.16	0.915262
1225.54	1.46839
1228.91	0.483761
1232.29	0.037163
1235.66	1.7533
1239.04	1.29586
1242.41	0.352171
1245.79	1.54787
1249.16	0.954908
1252.54	0.814507
1255.91	1.32366
1259.29	1.62372
1262.66	1.62444
1266.04	0.253624
1269.41	0.639952
1272.79	0.461323
1276.16	0.52252
1279.53	0.744663
1282.91	1.12521
1286.28	1.37167
1289.66	1.27883
1293.03	1.36685
1296.41	1.12105
1299.78	0.258583
