Measurement: Raman, 514 nm, unoriented, Raman Data Processed
Mineral: Polydymite
Rruff sample: R050609
Ideal chemistry: Ni^2+^Ni^3+^_2_S^2-^_4_
Locality: Dry Nickel mine, Bindura, South Rhodesia, Rhodesia
Source: University of Arizona Mineral Museum
Description: Reddish-bronze tarnished metallic fragment associated with green clinochlore and white actinolite
Measured chemistry: (Ni_0.85_Fe_0.15_)Ni_2.00_S_4.00_
Raman shift (cm-1)	intensity
157.247	0
161.396	94.856
165.544	106.146
169.689	99.632
173.833	73.366
177.974	107.076
182.114	75.942
186.251	171.212
190.387	233.554
194.52	325.135
198.652	440.717
202.782	522.679
206.909	688.575
211.035	364.811
215.159	24.748
219.281	126.401
223.4	284.979
227.518	210.505
231.634	76.081
235.748	4.25
239.86	63.168
243.97	44.69
248.079	36.529
252.185	20.357
256.289	10.016
260.391	8.944
264.492	32.017
268.59	62.011
272.687	126.87
276.781	154.882
280.874	328.726
284.964	862.058
289.053	1065.05
293.14	759.706
297.225	405.075
301.308	201.635
305.389	93.144
309.468	61.094
313.545	47.944
317.62	0.033
321.693	2.948
325.765	141.129
329.834	34.655
333.902	109.303
337.967	152.454
342.031	166.19
346.093	124.094
350.153	119.561
354.21	114.12
358.267	109.416
362.321	114.404
366.373	171.958
370.423	158.381
374.471	214.412
378.518	362.275
382.563	422.477
386.605	276.055
390.646	153.672
394.685	121.848
398.722	69.863
402.757	48.783
406.79	12.499
410.821	59.841
414.851	33.806
418.878	2.283
422.904	29.424
426.927	5.081
430.949	30.353
434.969	15.195
438.987	54.621
443.003	14.323
447.018	77.137
451.03	95.503
455.041	37.37
459.049	69.006
463.056	57.666
467.061	70.106
471.064	167
475.065	137.772
479.064	154.89
483.062	112.186
487.057	97.037
491.051	76.141
495.043	84.658
499.032	56.814
503.02	58.545
507.007	71.769
510.991	98.467
514.973	94.179
518.954	61.773
522.933	25.271
526.91	26.797
530.885	96.264
534.858	79.727
538.829	86.134
542.799	93.59
546.766	27.929
550.732	58.311
554.696	90.228
558.658	102.507
562.618	84.978
566.576	60.515
570.533	140.977
574.488	95.724
578.44	46.097
582.391	51.396
586.341	17.952
590.288	73.509
594.233	25.358
598.177	42.846
602.119	44.01
606.059	51.452
609.997	12.326
613.933	30.25
617.868	36.58
621.801	71.148
625.731	55.778
629.66	5.158
633.588	20.861
637.513	32.552
641.437	12.659
645.358	25.87
649.278	55.362
653.196	63.975
657.113	41.358
661.027	73.328
664.94	90.39
668.851	84.656
672.76	65.853
676.667	67.978
680.572	77.349
684.476	84.092
688.378	71.894
692.278	64.158
696.176	74.801
700.072	128.375
703.967	40.766
707.86	30.697
711.751	72.1
715.64	74.45
719.527	106.751
723.413	41.909
727.297	38.118
731.179	31.244
735.059	25.131
738.937	30.385
742.814	43.072
746.689	46.889
750.562	75.689
754.433	92.458
758.303	48.863
762.17	28.661
766.036	9.314
769.901	50.584
773.763	57.724
777.624	35.572
781.482	39.366
785.339	34.282
789.195	11.315
793.048	41.221
796.9	5.443
800.75	48.112
804.598	35.065
808.445	23.934
812.289	19.543
816.132	16.711
819.973	8.073
823.813	10.338
827.65	15.779
831.486	24.083
835.32	49.392
839.152	18.66
842.983	13.701
846.812	11.032
850.639	37.148
854.464	70.145
858.288	6.888
862.11	85.977
865.93	37.904
869.748	45.787
873.564	67.761
877.379	20.556
881.192	42.201
885.004	82.825
888.813	72.382
892.621	94.926
896.427	62.706
900.232	57.508
904.034	112.364
907.835	90.247
911.634	89.064
915.432	115.292
919.227	122.92
923.021	124.663
926.813	53.041
930.604	115.531
934.393	122.391
938.18	79.731
941.965	163.009
945.749	47.809
949.53	69.381
953.311	159.104
957.089	112.841
960.866	137.37
964.641	148.126
968.414	105.073
972.185	143.652
975.955	141.025
979.723	135.833
983.49	225.701
987.254	150.056
991.017	206.031
994.779	181.953
998.538	209.408
1002.3	206.596
1006.05	197.83
1009.81	246.231
1013.56	219.877
1017.31	193.196
1021.06	240.538
1024.81	159.926
1028.55	152.583
1032.3	175.373
1036.04	163.89
1039.78	237.547
1043.52	224.221
1047.26	179.802
1050.99	190.523
1054.73	227.257
1058.46	194.875
1062.19	216.052
1065.92	210.86
1069.65	210.775
1073.37	220.582
1077.1	210.408
1080.82	184.197
1084.54	163.293
1088.26	128.728
1091.97	122.38
1095.69	133.558
1099.4	82.103
1103.12	150.317
1106.83	87.323
1110.54	130.295
1114.24	174.224
1117.95	72.813
1121.65	165.692
1125.35	96.289
1129.06	55.836
1132.75	130.931
1136.45	133.415
1140.15	137.908
1143.84	125.251
1147.53	128.542
1151.22	119.68
1154.91	58.533
1158.6	50.555
1162.28	61.408
1165.97	65.657
1169.65	88.093
1173.33	3.73
1177.01	38.766
1180.69	61.715
1184.36	3.387
1188.04	9.69
1191.71	22.461
1195.38	14.141
1199.05	22.163
1202.71	35.913
1206.38	8.268
1210.04	1.704
1213.71	24.781
1217.37	24.318
1221.03	15.079
1224.68	58.585
1228.34	0.806
1231.99	19.98
1235.65	28.873
1239.3	1.781
1242.95	91.273
1246.59	41.293
1250.24	31.267
1253.88	53.184
1257.53	63.051
1261.17	30.787
1264.81	58.551
1268.45	66.212
1272.08	42.678
1275.72	9.047
1279.35	23.351
1282.98	3.589
1286.61	28.746
1290.24	15.017
1293.87	40.975
1297.49	51.167
1301.11	95.993
1304.73	25.748
1308.36	27.553
1311.97	65.126
1315.59	36.625
1319.2	13.889
1322.82	35.166
1326.43	77.117
1330.04	47.185
1333.65	41.183
1337.26	68.155
1340.86	13.101
1344.47	18.809
1348.07	36.419
1351.67	46.521
1355.27	91.75
1358.87	48.219
1362.46	95.775
1366.06	60.675
1369.65	56.088
1373.24	103.123
1376.83	105.888
1380.42	55.388
1384	79.968
1387.59	69.296
1391.17	100.801
1394.75	94.292
1398.33	60.282
1401.91	84.681
1405.49	29.034
1409.06	37.993
1412.64	96.152
1416.21	70.829
1419.78	64.684
1423.35	82.867
1426.91	39.871
1430.48	75.098
1434.05	74.008
1437.61	82.299
1441.17	35.609
1444.73	71.621
1448.29	106.347
1451.84	99.011
1455.4	77.359
1458.95	39.158
1462.5	61.568
1466.05	25.97
1469.6	90.764
1473.15	76.142
1476.69	49.091
1480.24	46.849
1483.78	57.738
1487.32	10.154
1490.86	7.086
1494.39	30.921
1497.93	22.835
1501.46	61.965
