Measurement: Raman, 780 nm, unoriented, Raman Data Processed
Mineral: Polydymite
Rruff sample: R050609
Ideal chemistry: Ni^2+^Ni^3+^_2_S^2-^_4_
Locality: Dry Nickel mine, Bindura, South Rhodesia, Rhodesia
Source: University of Arizona Mineral Museum
Description: Reddish-bronze tarnished metallic fragment associated with green clinochlore and white actinolite
Measured chemistry: (Ni_0.85_Fe_0.15_)Ni_2.00_S_4.00_
Raman shift (cm-1)	intensity
145.098	0
147.991	0.845745
150.884	3.12344
153.776	1.74766
156.669	0.355026
159.562	0.432312
162.454	0.820137
165.347	0.339682
168.24	1.05671
171.132	1.5381
174.025	2.21488
176.918	1.64587
179.811	1.63979
182.703	1.226
185.596	1.67535
188.489	1.48266
191.381	1.53456
194.274	0.987326
197.167	0.792299
200.06	0.745342
202.952	0.866385
205.845	1.27784
208.738	1.39016
211.63	1.9469
214.523	2.36576
217.416	2.20545
220.308	2.54809
223.201	4.30092
226.094	4.31732
228.987	3.56371
231.879	3.0843
234.772	2.24992
237.665	2.08847
240.557	1.88652
243.45	1.6543
246.343	1.90421
249.235	1.26654
252.128	0.977066
255.021	0.196035
257.913	0.861645
260.806	0.351208
263.699	0.824312
266.592	0.23678
269.484	0.499315
272.377	0.652618
275.27	0.427955
278.162	1.03459
281.055	0.894911
283.948	1.07398
286.84	2.67843
289.733	2.22393
292.626	2.31095
295.519	3.0991
298.411	2.55171
301.304	1.72858
304.197	2.08726
307.089	1.00655
309.982	1.32121
312.875	1.09581
315.767	0.300243
318.66	0.076
321.553	0.267498
324.445	0.134312
327.338	0.232302
330.231	1.06604
333.124	1.67835
336.016	2.59337
338.909	2.88243
341.802	3.70465
344.694	5.20118
347.587	5.81776
350.48	5.14439
353.373	3.91524
356.265	1.37397
359.158	1.61112
362.051	2.0908
364.943	2.37717
367.836	3.07323
370.729	3.63688
373.621	5.47847
376.514	5.2789
379.407	6.5874
382.3	7.38218
385.192	7.16788
388.085	6.88148
390.978	4.83209
393.87	3.65274
396.763	2.37634
399.656	2.23049
402.548	1.3976
405.441	1.39545
408.334	0.547504
411.226	0.798286
414.119	0.048763
417.012	0.02553
419.904	1.02609
422.797	0.845186
425.69	0.826303
428.583	0.607597
431.475	1.12045
434.368	0.501553
437.261	0.030867
440.153	0.005686
443.046	0.143679
445.939	0.894735
448.832	0.46591
451.724	0.702072
454.617	0.893223
457.51	1.24779
460.402	0.808815
463.295	0.673367
466.188	0.912773
469.08	1.33216
471.973	0.863342
474.866	0.834803
477.759	0.734833
480.651	0.540377
483.544	1.52069
486.437	0.932245
489.329	1.49254
492.222	0.47739
495.115	0.048655
498.007	1.91403
500.9	0.171955
503.793	1.51641
506.685	0.614935
509.578	0.221852
512.471	1.45318
515.364	0.843187
518.256	1.0424
521.149	1.04086
524.042	1.13152
526.934	0.465528
529.827	0.859997
532.72	0.643058
535.612	1.37792
538.505	0.389826
541.398	0.651404
544.291	1.12105
547.183	0.889266
550.076	1.61595
552.969	0.893863
555.861	1.13441
558.754	1.03531
561.647	1.05968
564.539	1.43009
567.432	1.85958
570.325	1.53443
573.217	0.603656
576.11	0.932964
579.003	0.602292
581.896	1.01579
584.788	1.26068
587.681	0.343066
590.574	0.300258
593.466	0.242064
596.359	0.458138
599.252	0.105115
602.144	0.377214
605.037	0.540493
607.93	0.831359
610.823	1.04625
613.715	0.477218
616.608	0.406101
619.501	1.5123
622.393	0.274732
625.286	1.46663
628.179	0.795991
631.072	0.665581
633.964	1.13372
636.857	0.816916
639.75	0.619722
642.642	0.659015
645.535	0.845098
648.428	1.57283
651.32	1.53598
654.213	1.73864
657.106	1.34438
659.999	1.37591
662.891	0.541916
665.784	0.848145
668.677	0.922387
671.569	0.830048
674.462	0.599881
677.355	0.966361
680.247	0.261439
683.14	0.69539
686.033	0.3116
688.926	1.19203
691.818	0.49912
694.711	0.344783
697.604	0.092255
700.496	0.090652
703.389	1.28122
706.282	0.595634
709.174	0.557848
712.067	0.696363
714.96	0.050042
717.852	0.946052
720.745	0.165432
723.638	0.674501
726.53	0.050794
729.423	0.640919
732.316	0.461627
735.209	0.269923
738.101	0.081041
740.994	1.11325
743.887	0.018049
746.779	0.719553
749.672	1.04167
752.565	1.33374
755.457	0.90453
758.35	1.37052
761.243	1.35424
764.136	0.338549
767.028	1.25504
769.921	0.936419
772.814	0.698544
775.706	0.179016
778.599	0.307167
781.492	1.083
784.385	0.802446
787.277	1.19298
790.17	0.8606
793.063	0.817781
795.955	0.904436
798.848	0.386654
801.741	1.49928
804.633	1.20243
807.526	0.895597
810.419	0.503851
813.312	1.31787
816.204	1.36549
819.097	1.37609
821.99	1.27757
824.882	1.28322
827.775	1.05881
830.668	1.3714
833.56	0.746838
836.453	0.968462
839.346	1.23972
842.239	2.05016
845.131	2.48566
848.024	1.43808
850.917	2.54868
853.809	1.58625
856.702	2.78361
859.595	1.82177
862.487	1.65325
865.38	1.69269
868.273	2.17514
871.165	1.98346
874.058	2.06634
876.951	1.32123
879.843	0.864636
882.736	0.818207
885.629	0.994005
888.522	1.52729
891.414	0.731842
894.307	0.762367
897.2	1.07723
900.092	0.132501
902.985	0.011415
905.878	0.547226
908.77	0.231118
911.663	0.85968
914.556	0.057356
917.449	1.08334
920.341	0.754559
923.234	0.449707
926.127	0.277567
929.019	0.628047
931.912	0.62142
934.805	0.509303
937.697	0.442385
940.59	1.34505
943.483	0.741135
946.376	0.034169
949.268	0.637382
952.161	0.25868
955.054	0.466805
957.946	1.11934
960.839	0.982466
963.732	1.12766
966.625	1.41686
969.517	0.579246
972.41	0.405169
975.303	0.497005
978.195	0.975345
981.088	0.417298
983.981	0.733249
986.873	0.453372
989.766	0.682159
992.659	1.25638
995.552	1.07948
998.444	1.01603
1001.34	1.25576
1004.23	0.638392
1007.12	1.36196
1010.01	1.72945
1012.91	1.62107
1015.8	0.760677
1018.69	0.633384
1021.59	0.812829
1024.48	0.72739
1027.37	0.942175
1030.26	1.00709
1033.16	0.181268
1036.05	0.490026
1038.94	0.653278
1041.84	0.246517
1044.73	1.74452
1047.62	0.916933
1050.51	0.916263
1053.4	0.866447
1056.3	1.5243
1059.19	0.870798
1062.08	1.49959
1064.98	0.060804
1067.87	0.939616
1070.76	0.369499
1073.65	1.19816
1076.55	1.27538
1079.44	0.089387
1082.33	0.535055
1085.22	0.852279
1088.12	0.488342
1091.01	0.725487
1093.9	0.875897
1096.8	0.805171
1099.69	0.240375
1102.58	1.53632
1105.47	1.48021
1108.37	0.648978
1111.26	0.776341
1114.15	0.506796
1117.05	0.864521
1119.94	0.118997
1122.83	0.964637
1125.72	0.206871
1128.62	0.778775
1131.51	0.143587
1134.4	0.585537
1137.29	0.581387
1140.19	1.32466
1143.08	0.648704
1145.97	1.09713
1148.87	0.818903
1151.76	0.969837
1154.65	1.21466
1157.54	0.321437
1160.43	0.29831
1163.33	0.664907
1166.22	0.761649
1169.11	1.05456
1172.01	1.08575
1174.9	1.24248
1177.79	0.892647
1180.68	0.841131
1183.58	1.0514
1186.47	0.267019
1189.36	0.973773
1192.26	0.352596
1195.15	0.940974
1198.04	0.861844
1200.93	1.51724
1203.83	1.24623
1206.72	0.127136
1209.61	0.546448
1212.5	1.63269
1215.4	1.30922
1218.29	0.522953
1221.18	0.620027
1224.08	1.32698
1226.97	0.465326
1229.86	1.38998
1232.75	1.23611
1235.64	0.825047
1238.54	0.688958
1241.43	0.020592
1244.32	1.42225
1247.22	1.01786
1250.11	0.156213
1253	0.811837
1255.89	1.04627
1258.79	1.10931
1261.68	0.462418
1264.57	0.326349
1267.46	1.03167
1270.36	0.705947
1273.25	0.99226
1276.14	1.87705
1279.04	1.46584
1281.93	1.27641
1284.82	1.08474
