Measurement: Raman, 780 nm, unoriented, Raman Data Processed
Mineral: Posnjakite
Rruff sample: R110172
Ideal chemistry: Cu^2+^_4_S^6+^O_4_(OH)_6_H_2_O
Locality: Yellow Rose of Texas mine, Animas District, San Juan County, Colorado, USA
Source: George Stevens
Description: Blocky light blue crystals associated with dark blue linarite
Raman shift (cm-1)	intensity
216.954	0
219.847	0.317516
222.739	2.38232
225.632	1.33773
228.525	5.91161
231.417	5.49766
234.31	1.95625
237.203	4.56726
240.095	4.8387
242.988	7.18436
245.881	4.32006
248.774	6.25488
251.666	4.97046
254.559	4.53684
257.452	1.36449
260.344	5.57421
263.237	4.16249
266.13	1.27571
269.022	3.62497
271.915	2.31437
274.808	2.0095
277.701	1.17988
280.593	2.21415
283.486	1.94627
286.379	1.67709
289.271	0.984461
292.164	2.35981
295.057	0.941641
297.95	1.52439
300.842	0.373709
303.735	0.3176
306.628	3.06547
309.52	0.469524
312.413	1.52199
315.306	0.413292
318.198	3.27439
321.091	3.55854
323.984	2.29964
326.877	4.59116
329.769	2.0636
332.662	4.20308
335.555	3.98198
338.447	2.01559
341.34	3.30362
344.233	3.60701
347.125	1.58973
350.018	3.81062
352.911	1.4655
355.803	2.65672
358.696	3.08711
361.589	1.63118
364.482	1.37034
367.374	2.87988
370.267	0.623283
373.16	0.082514
376.052	0.500793
378.945	0.603781
381.838	1.51296
384.731	0.922009
387.623	0.50897
390.516	0.644585
393.409	1.82944
396.301	1.34626
399.194	4.38859
402.087	4.38075
404.979	3.55526
407.872	6.96823
410.765	8.93336
413.658	10.7995
416.55	11.5593
419.443	9.4451
422.336	10.7941
425.228	12.5852
428.121	15.1937
431.014	18.0864
433.906	18.9725
436.799	18.5926
439.692	17.9708
442.584	19.1727
445.477	16.8654
448.37	16.4127
451.263	12.7108
454.155	15.2803
457.048	10.0719
459.941	6.99349
462.833	5.77229
465.726	2.43426
468.619	4.48485
471.512	1.9429
474.404	3.59738
477.297	0.916887
480.19	2.46095
483.082	2.06585
485.975	3.33388
488.868	2.38972
491.76	5.10218
494.653	5.19767
497.546	6.41463
500.438	6.60056
503.331	6.6806
506.224	7.78862
509.117	7.984
512.009	7.01311
514.902	4.78444
517.795	4.19127
520.687	4.36952
523.58	0.470049
526.473	1.84204
529.365	1.47184
532.258	1.04295
535.151	3.25802
538.044	1.80331
540.936	0.17477
543.829	0.020027
546.722	1.16732
549.614	1.72211
552.507	1.98058
555.4	2.86925
558.293	2.98007
561.185	2.66411
564.078	1.67657
566.971	2.4986
569.863	3.2216
572.756	1.2509
575.649	2.34376
578.541	4.58931
581.434	1.3003
584.327	3.76925
587.22	3.01426
590.112	5.72634
593.005	8.29263
595.898	7.54669
598.79	7.17874
601.683	6.69874
604.576	7.02226
607.468	5.33543
610.361	5.9622
613.254	5.84963
616.146	3.81469
619.039	4.58783
621.932	4.71388
624.825	4.21535
627.717	4.91565
630.61	4.94461
633.503	1.54215
636.395	1.29052
639.288	1.14787
642.181	2.07294
645.073	2.77711
647.966	1.27138
650.859	1.1364
653.752	0.516199
656.644	1.50368
659.537	1.44399
662.43	1.41031
665.322	1.26279
668.215	2.83093
671.108	2.83054
674	1.5239
676.893	1.1295
679.786	2.79302
682.679	1.86954
685.571	2.49649
688.464	1.44092
691.357	2.11201
694.249	1.39049
697.142	2.83365
700.035	1.47811
702.928	3.55977
705.82	0.499598
708.713	2.73518
711.606	1.20329
714.498	0.556009
717.391	3.72287
720.284	1.74887
723.176	1.56241
726.069	1.24339
728.962	2.26976
731.855	2.96128
734.747	1.62177
737.64	1.03853
740.533	2.74647
743.425	3.10158
746.318	1.61506
749.211	3.56723
752.103	5.11193
754.996	2.76794
757.889	2.68497
760.782	0.863859
763.674	3.81803
766.567	2.69546
769.46	1.63022
772.352	1.78486
775.245	1.91611
778.138	3.52484
781.03	2.54039
783.923	0.948923
786.816	1.62181
789.708	1.40085
792.601	0.372101
795.494	0.792234
798.387	2.19564
801.279	0.278326
804.172	3.15838
807.065	3.51614
809.957	5.11212
812.85	1.40496
815.743	3.59344
818.635	3.44097
821.528	1.81272
824.421	4.19301
827.314	3.20324
830.206	3.91577
833.099	3.25545
835.992	3.42138
838.884	4.5271
841.777	2.94001
844.67	1.0903
847.562	3.99085
850.455	2.58802
853.348	4.64362
856.241	5.52696
859.133	2.97065
862.026	2.02181
864.919	3.09358
867.811	2.88693
870.704	1.70419
873.597	2.33331
876.49	2.93302
879.382	2.40035
882.275	3.55477
885.168	1.76613
888.06	1.9393
890.953	2.82747
893.846	4.38643
896.738	1.22244
899.631	1.26969
902.524	1.30745
905.417	0.543594
908.309	0.912212
911.202	1.27835
914.095	2.23553
916.987	2.57493
919.88	0.101175
922.773	0.924601
925.665	2.03456
928.558	1.09438
931.451	1.96254
934.343	0.394245
937.236	0.88377
940.129	2.24586
943.022	0.821428
945.914	2.49864
948.807	2.61498
951.7	2.9943
954.592	5.00459
957.485	8.77026
960.378	13.5577
963.27	20.6238
966.163	24.8039
969.056	33.7108
971.949	35.1584
974.841	31.998
977.734	23.8164
980.627	16.6424
983.519	9.32478
986.412	11.4361
989.305	5.99106
992.197	6.28052
995.09	4.24925
997.983	4.14473
1000.88	2.70674
1003.77	2.83562
1006.66	0.156347
1009.55	1.82923
1012.45	1.27252
1015.34	1.31653
1018.23	0.427217
1021.12	0.72436
1024.02	1.38932
1026.91	1.33791
1029.8	0.449448
1032.69	1.67763
1035.59	1.07211
1038.48	2.13627
1041.37	4.03774
1044.27	3.69876
1047.16	5.03158
1050.05	5.55349
1052.94	5.84348
1055.84	2.95077
1058.73	4.20137
1061.62	5.75788
1064.52	1.87353
1067.41	2.89138
1070.3	0.100351
1073.19	2.60164
1076.09	0.587898
1078.98	3.0873
1081.87	2.40188
1084.76	2.66369
1087.66	0.444338
1090.55	4.65487
1093.44	2.88462
1096.34	1.91517
1099.23	1.64296
1102.12	3.28661
1105.01	3.70221
1107.91	3.83861
1110.8	2.16228
1113.69	4.05903
1116.58	1.09842
1119.48	0.788022
1122.37	3.4882
1125.26	4.62614
1128.15	1.05765
1131.05	0.60438
1133.94	3.47145
1136.83	2.84508
1139.72	2.11016
1142.62	2.99481
1145.51	3.77033
1148.4	3.87302
1151.3	3.27646
1154.19	1.18974
1157.08	4.27326
1159.97	1.03096
1162.87	4.04429
1165.76	3.79413
1168.65	4.6705
1171.55	3.19177
1174.44	1.81167
1177.33	0.784657
1180.22	0.067005
1183.12	0.15853
1186.01	0.649709
1188.9	2.6086
1191.79	3.71796
1194.69	2.97436
1197.58	0.583038
1200.47	3.55744
1203.37	1.9581
1206.26	0.612134
1209.15	0.996154
1212.04	3.42495
1214.93	0.222881
1217.83	2.55916
1220.72	1.79248
1223.61	2.38518
1226.51	0.460801
1229.4	1.87133
1232.29	0.015368
1235.18	1.61747
1238.08	2.96382
1240.97	2.10328
1243.86	3.66425
1246.76	2.75703
1249.65	3.16207
1252.54	3.44525
1255.43	2.37297
1258.33	1.10019
1261.22	2.8529
1264.11	0.600751
1267	3.94516
1269.9	3.63069
1272.79	2.9322
1275.68	2.38417
1278.58	2.68508
1281.47	2.49554
1284.36	1.10918
