Measurement: Raman, 532 nm, unoriented, Raman Data Processed
Mineral: Potassic-fluoro-pargasite
Rruff sample: R110065
Ideal chemistry: KCa_2_(Mg_4_Al)Si_6_Al_2_O_22_F_2_
Locality: Tranomaro, Fort Dauphine area, Madagascar
Source: Renato & Adriana Pagano
Description: Black blocky euhedral single-crystal, from the original find
Raman shift (cm-1)	intensity
164.738	0
167.631	1.17444
170.524	0.638748
173.416	16.9557
176.309	44.1443
179.202	69.6952
182.094	72.3076
184.987	85.0505
187.88	101.897
190.773	97.6608
193.665	73.972
196.558	54.4103
199.451	40.7458
202.343	31.5225
205.236	25.9021
208.129	29.3219
211.021	41.5614
213.914	60.7809
216.807	82.9699
219.699	116.55
222.592	150.698
225.485	189.837
228.377	232.56
231.27	247.103
234.163	234.417
237.056	200.503
239.948	180.198
242.841	141.494
245.734	113.63
248.626	82.9254
251.519	66.9048
254.412	52.4444
257.305	35.2096
260.197	27.7998
263.09	17.9909
265.983	10.526
268.875	16.4662
271.768	8.15518
274.661	14.1295
277.553	13.3646
280.446	14.4938
283.339	9.68982
286.232	6.44833
289.124	10.163
292.017	0.158722
294.91	4.4989
297.802	1.35883
300.695	2.03891
303.588	3.54022
306.481	1.45105
309.373	0.698792
312.266	4.63599
315.159	5.07321
318.051	0.564819
320.944	0.37558
323.837	9.38238
326.729	6.71191
329.622	10.0895
332.515	11.9777
335.408	13.921
338.3	14.6179
341.193	11.0716
344.086	8.18695
346.978	9.16614
349.871	11.8795
352.764	18.1763
355.656	27.4669
358.549	36.6758
361.442	47.4623
364.334	59.2712
367.227	70.9299
370.12	78.2693
373.012	75.8435
375.905	78.2769
378.798	69.3219
381.691	68.2296
384.583	59.5561
387.476	50.1328
390.369	38.3724
393.261	26.237
396.154	15.0463
399.047	10.7647
401.94	7.65308
404.832	2.40979
407.725	0.717499
410.618	4.25238
413.51	3.25162
416.403	2.15601
419.296	10.6159
422.188	8.28122
425.081	11.3533
427.974	16.4846
430.866	19.2637
433.759	19.1848
436.652	15.4554
439.545	10.5247
442.437	4.36789
445.33	2.82498
448.223	1.89212
451.115	0.192566
454.008	0.411438
456.901	4.28372
459.793	5.13931
462.686	4.96701
465.579	0.177338
468.472	0.868591
471.364	3.49191
474.257	2.81363
477.15	4.09347
480.042	2.89002
482.935	8.90701
485.828	9.82742
488.721	12.8985
491.613	15.9409
494.506	20.111
497.399	26.4781
500.291	32.8401
503.184	42.8965
506.077	55.5446
508.969	68.3349
511.862	90.4315
514.755	88.4231
517.648	91.3221
520.54	90.4614
523.433	74.7583
526.326	71.665
529.218	68.669
532.111	66.2211
535.004	65.9269
537.896	66.9335
540.789	71.3129
543.682	69.7577
546.575	72.2547
549.467	70.0627
552.36	60.3048
555.253	53.318
558.145	49.9878
561.038	39.2311
563.931	35.4966
566.823	28.6388
569.716	25.1678
572.609	24.5634
575.502	17.4349
578.394	13.609
581.287	9.78641
584.18	8.16565
587.072	6.98944
589.965	1.90054
592.858	1.55334
595.75	2.32742
598.643	3.6467
601.536	2.37265
604.428	5.11713
607.321	1.65912
610.214	3.34647
613.107	12.6021
615.999	10.9025
618.892	15.5696
621.785	22.8123
624.677	36.4775
627.57	43.1548
630.463	56.612
633.356	76.1625
636.248	101.65
639.141	129.874
642.034	163.447
644.926	187.643
647.819	218.245
650.712	239.96
653.604	251.217
656.497	258.09
659.39	253.401
662.283	247.795
665.175	236.387
668.068	217.994
670.961	192.249
673.853	167.621
676.746	147.884
679.639	137.214
682.531	128.823
685.424	128.575
688.317	131.711
691.21	133.667
694.102	131.723
696.995	113.846
699.888	88.4525
702.78	64.0167
705.673	44.8986
708.566	31.7206
711.458	22.648
714.351	17.3614
717.244	8.07318
720.136	9.12128
723.029	5.53262
725.922	7.55377
728.815	4.85605
731.707	6.72739
734.6	7.14841
737.493	3.63043
740.385	1.37213
743.278	2.22766
746.171	0.428436
749.063	1.51929
751.956	0.528473
754.849	2.61935
757.742	1.66302
760.634	0.325623
763.527	1.61328
766.42	0.49884
769.312	0.090057
772.205	3.44171
775.098	1.3042
777.99	7.21591
780.883	9.38196
783.776	8.4371
786.669	9.58987
789.561	12.5305
792.454	13.1362
795.347	14.1749
798.239	16.0938
801.132	19.2696
804.025	19.627
806.918	21.1502
809.81	26.9366
812.703	25.8683
815.596	25.5413
818.488	23.0249
821.381	26.4589
824.274	26.5358
827.166	25.7643
830.059	23.3396
832.952	17.8587
835.845	16.3777
838.737	10.3467
841.63	11.4153
844.523	7.16611
847.415	7.82809
850.308	4.7471
853.201	6.83426
856.093	4.27579
858.986	3.42273
861.879	3.4072
864.771	3.19202
867.664	0.039001
870.557	0.27948
873.45	0.679779
876.342	0.19754
879.235	1.20371
882.128	1.41324
885.02	2.14951
887.913	0.541901
890.806	1.72635
893.698	1.53787
896.591	2.08783
899.484	3.48062
902.377	4.48377
905.269	9.48086
908.162	9.92673
911.055	13.5517
913.947	17.4161
916.84	20.0832
919.733	21.9188
922.625	22.8472
925.518	22.6666
928.411	24.3903
931.304	17.4676
934.196	17.4357
937.089	8.5155
939.982	6.84198
942.875	2.63434
945.767	6.30481
948.66	5.28803
951.553	2.87955
954.445	7.37149
957.338	9.87808
960.231	9.78998
963.123	13.6188
966.016	10.6297
968.909	12.5933
971.802	8.70264
974.694	10.5005
977.587	14.861
980.48	15.7935
983.372	16.9034
986.265	21.3299
989.158	19.4492
992.05	21.2354
994.943	20.9466
997.836	24.3069
1000.73	25.2205
1003.62	27.181
1006.51	29.4694
1009.41	37.1002
1012.3	40.4165
1015.19	46.368
1018.09	49.8064
1020.98	45.2152
1023.87	49.3396
1026.76	43.2554
1029.66	43.593
1032.55	36.953
1035.44	35.2687
1038.33	28.9171
1041.23	20.4411
1044.12	16.3981
1047.01	15.3051
1049.9	12.1075
1052.8	10.0932
1055.69	5.94516
1058.58	6.79504
1061.47	2.51007
1064.37	1.52362
1067.26	1.34943
1070.15	0.33905
1073.05	0.026398
1075.94	2.19339
1078.83	1.60278
1081.72	2.90482
1084.62	1.4791
1087.51	3.42065
1090.4	1.40183
1093.3	7.10162
1096.19	3.88113
1099.08	7.60912
1101.97	2.55287
1104.87	6.00011
1107.76	5.20065
1110.65	5.95845
1113.54	2.41492
1116.44	1.31697
1119.33	3.31448
1122.22	0.832596
1125.12	0.542801
1128.01	2.66333
1130.9	0.947098
1133.79	0.30899
1136.68	1.92528
1139.58	3.30286
1142.47	3.07243
1145.36	2.29669
1148.26	2.25406
1151.15	3.58466
1154.04	3.42516
1156.93	3.64249
1159.83	2.62842
1162.72	2.84386
1165.61	6.43094
1168.51	3.74857
1171.4	2.17235
1174.29	6.12303
1177.18	7.01186
1180.08	3.79094
1182.97	3.20894
1185.86	6.00703
1188.75	7.72345
1191.65	5.05576
1194.54	1.61551
1197.43	4.11012
1200.33	3.11713
1203.22	3.61662
1206.11	2.02535
1209	7.00404
1211.9	2.84592
1214.79	6.29807
1217.68	3.21664
1220.57	0.455582
1223.47	4.71707
1226.36	3.67389
1229.25	0.698608
1232.14	2.34648
1235.04	1.22345
1237.93	0.876892
1240.82	3.74368
1243.71	1.59956
1246.61	0.832642
1249.5	3.81483
1252.39	5.66333
1255.29	3.2361
1258.18	3.5845
1261.07	5.99367
1263.96	4.49481
1266.86	0.777786
1269.75	0.613647
1272.64	1.8584
1275.54	2.78111
1278.43	2.22437
1281.32	0.096649
1284.21	4.88684
1287.11	1.44284
1290	3.94455
1292.89	0.425278
1295.78	1.82526
1298.68	2.3685
1301.57	2.19034
