Measurement: Raman, 780 nm, unoriented, Raman Data Processed
Mineral: Potassic-fluoro-pargasite
Rruff sample: R110065
Ideal chemistry: KCa_2_(Mg_4_Al)Si_6_Al_2_O_22_F_2_
Locality: Tranomaro, Fort Dauphine area, Madagascar
Source: Renato & Adriana Pagano
Description: Black blocky euhedral single-crystal, from the original find
Raman shift (cm-1)	intensity
168.26	4.62683
171.153	28.4227
174.046	23.0557
176.938	3.5166
179.831	25.9586
182.724	71.035
185.616	130.535
188.509	166.754
191.402	144.012
194.294	84.2175
197.187	27.0751
200.08	2.79553
202.972	10.4911
205.865	3.89502
208.758	32.4442
211.651	79.5516
214.543	147.016
217.436	215.213
220.329	313.755
223.221	436.603
226.114	575.647
229.007	681.193
231.899	683.906
234.792	620.89
237.685	568.723
240.578	497.011
243.47	404.53
246.363	329.302
249.256	268.87
252.148	228.858
255.041	186.542
257.934	142.204
260.827	103.639
263.719	70.8905
266.612	53.0081
269.505	48.4758
272.397	51.082
275.29	53.5374
278.183	57.4688
281.075	53.5945
283.968	36.895
286.861	20.4988
289.753	17.3831
292.646	4.21265
295.539	2.02258
298.432	6.23633
301.324	3.91101
304.217	6.34595
307.11	0.350708
310.002	8.67127
312.895	9.29382
315.788	29.0189
318.68	52.0335
321.573	81.358
324.466	115.177
327.359	142.571
330.251	177.494
333.144	194.431
336.037	218.584
338.929	235.588
341.822	234.117
344.715	224.218
347.608	216.307
350.5	215.333
353.393	209.985
356.286	211.469
359.178	216.721
362.071	230.891
364.964	242.586
367.856	254.39
370.749	263.757
373.642	252.746
376.534	243.635
379.427	235.941
382.32	227.954
385.213	220.636
388.105	193.25
390.998	163.953
393.891	131.352
396.783	99.4081
399.676	78.7291
402.569	51.0233
405.462	37.5127
408.354	20.9182
411.247	16.0311
414.14	13.4086
417.032	13.5885
419.925	16.1621
422.818	17.1807
425.71	21.4222
428.603	22.4443
431.496	23.8191
434.389	19.9187
437.281	6.79529
440.174	3.79187
443.067	0.291626
445.959	7.63232
448.852	4.98022
451.745	4.573
454.637	2.04431
457.53	4.17334
460.423	3.06531
463.315	0.283325
466.208	4.01306
469.101	0.46582
471.994	4.84216
474.886	14.969
477.779	8.92578
480.672	10.9847
483.564	18.0248
486.457	19.1265
489.35	29.5576
492.243	32.5363
495.135	44.5422
498.028	49.5126
500.921	71.4685
503.813	94.7119
506.706	104.038
509.599	122.688
512.491	142.81
515.384	156.677
518.277	154.237
521.169	152.423
524.062	148.297
526.955	151.666
529.848	162.362
532.74	164.128
535.633	173.647
538.526	183.486
541.418	187.731
544.311	187.936
547.204	179.713
550.096	170.133
552.989	155.477
555.882	132.136
558.775	120.553
561.667	105.874
564.56	88.9935
567.453	76.5714
570.345	74.5869
573.238	61.827
576.131	51.3905
579.024	39.8252
581.916	39.1613
584.809	29.0626
587.702	24.1542
590.594	4.43506
593.487	2.2395
596.38	3.59949
599.272	5.68579
602.165	2.24829
605.058	3.66126
607.951	3.82251
610.843	1.25256
613.736	4.8562
616.629	15.1666
619.521	21.683
622.414	40.6704
625.307	59.1769
628.199	93.8505
631.092	127.284
633.985	177.18
636.878	230.16
639.77	294.647
642.663	368.053
645.556	440.296
648.448	500.425
651.341	538.309
654.234	552.176
657.126	560.803
660.019	554.049
662.912	540.225
665.804	515.215
668.697	465.921
671.59	409.914
674.483	353.084
677.375	315.007
680.268	294.822
683.161	279.991
686.053	280.049
688.946	294.347
691.839	291.503
694.731	262.621
697.624	218.376
700.517	157.676
703.41	112.27
706.302	80.1884
709.195	54.528
712.088	42.7615
714.98	22.5268
717.873	11.7031
720.766	10.1271
723.659	7.2486
726.551	0.924561
729.444	4.10382
732.337	7.28388
735.229	0.838135
738.122	2.7749
741.015	0.564941
743.907	2.28162
746.8	3.30914
749.693	3.31042
752.586	1.73694
755.478	3.64496
758.371	0.286926
761.264	1.95557
764.156	4.36035
767.049	6.94189
769.942	3.3844
772.834	4.57306
775.727	12.3596
778.62	21.0645
781.513	17.4594
784.405	21.1299
787.298	22.0429
790.191	35.2481
793.083	45.1917
795.976	41.5139
798.869	44.8301
801.761	50.7742
804.654	50.4063
807.547	53.6854
810.439	60.355
813.332	60.2663
816.225	60.8006
819.118	61.4592
822.01	67.1742
824.903	55.1176
827.796	52.5107
830.688	42.0225
833.581	40.9012
836.474	36.5018
839.366	29.9092
842.259	23.8864
845.152	21.4349
848.045	15.0248
850.937	16.6569
853.83	14.8466
856.723	8.74451
859.615	11.9763
862.508	6.09595
865.401	11.1773
868.293	3.88776
871.186	10.9954
874.079	5.75671
876.972	8.83557
879.864	1.1333
882.757	0.388672
885.65	7.86108
888.542	1.11438
891.435	0.79303
894.328	3.36408
897.221	1.93408
900.113	10.765
903.006	4.69702
905.899	8.96753
908.791	18.9244
911.684	19.006
914.577	17.4853
917.469	17.7129
920.362	24.5933
923.255	10.1019
926.148	15.4902
929.04	15.4957
931.933	17.2184
934.826	8.59222
937.718	10.7574
940.611	2.81
943.504	3.9201
946.396	1.7395
949.289	9.34644
952.182	13.3698
955.074	15.0706
957.967	20.0158
960.86	22.8171
963.753	20.0509
966.645	35.3665
969.538	36.4333
972.431	37.3297
975.323	35.064
978.216	45.92
981.109	45.4077
984.001	55.5572
986.894	49.9553
989.787	56.842
992.68	56.2217
995.572	53.6606
998.465	57.9542
1001.36	58.8082
1004.25	66.2338
1007.14	76.7686
1010.04	80.6086
1012.93	85.0268
1015.82	99.5654
1018.71	107.05
1021.61	99.8644
1024.5	101.939
1027.39	93.3345
1030.29	87.3821
1033.18	77.1179
1036.07	73.2935
1038.96	58.1527
1041.86	50.9838
1044.75	45.7615
1047.64	34.4383
1050.53	25.5385
1053.43	16.609
1056.32	20.1527
1059.21	18.1594
1062.1	9.349
1065	0.015686
1067.89	1.53778
1070.78	7.82056
1073.67	4.15936
1076.57	4.87415
1079.46	4.18915
1082.35	2.28992
1085.25	0.82489
1088.14	8.5896
1091.03	3.93951
1093.92	3.71423
1096.82	6.74774
1099.71	2.56836
1102.6	0.533264
1105.49	0.544067
1108.39	5.48309
1111.28	5.7594
1114.17	2.26263
1117.07	3.61987
1119.96	11.2689
1122.85	12.5986
1125.74	14.8094
1128.64	14.3504
1131.53	14.1315
1134.42	19.696
1137.32	14.478
1140.21	20.8701
1143.1	28.3944
1145.99	28.6217
1148.88	38.3394
1151.78	47.1339
1154.67	49.5772
1157.56	56.5387
1160.46	69.43
1163.35	85.4844
1166.24	91.8616
1169.13	107.263
1172.03	126.376
1174.92	135.83
1177.81	141.865
1180.7	146.002
1183.6	153.88
1186.49	162.665
1189.38	169.916
1192.28	168.25
1195.17	175.824
1198.06	175.6
1200.95	185.003
1203.85	194.546
1206.74	204.244
1209.63	216.825
1212.53	225.97
1215.42	233.695
1218.31	233.896
1221.2	229.61
1224.1	226.166
1226.99	224.417
1229.88	202.935
1232.77	184.358
1235.67	167.299
1238.56	149.267
1241.45	119.662
1244.34	105.472
1247.24	77.1558
1250.13	59.2622
1253.02	49.146
1255.91	31.834
1258.81	17.3348
1261.7	9.34338
1264.59	7.28625
1267.49	6.05689
1270.38	1.15747
1273.27	2.6864
1276.16	0.264282
1279.06	8.7359
1281.95	5.617
1284.84	2.36548
