Measurement: Raman, 532 nm, unoriented, Raman Data Processed
Mineral: Potassic-arfvedsonite
Rruff sample: R050516
Ideal chemistry: KNa_2_Fe^2+^_4_Fe^3+^Si_8_O_22_(OH)_2_
Locality: Red Wine complex, Labrador, Newfoundland, Canada
Source: Frank Hawthorne
Description: Black fragments, structure is published in Can Min 14 (1976) 346-356
Measured chemistry: (K_0.72_Na_0.25_[box]_0.03_)Na_2.00_(Fe^2+^_3.75_Ca_0.15_Mg_0.10_)_Î£=4_(Fe^3+^_0.55_Al_0.30_Ti_0.10_Mn_0.05_)Si_8_O_22_(OH)_2_
Raman shift (cm-1)	intensity
143.477	0
146.852	3.65358
150.226	6.74504
153.601	16.4436
156.976	17.784
160.351	16.714
163.726	23.2093
167.101	27.584
170.475	22.5812
173.85	11.485
177.225	9.61764
180.6	9.60423
183.975	8.94043
187.349	12.1674
190.724	12.836
194.099	16.5886
197.474	18.2028
200.849	16.6687
204.224	13.7164
207.598	11.3319
210.973	14.0181
214.348	13.7987
217.723	20.9109
221.097	20.6282
224.472	22.9243
227.847	27.1249
231.222	25.9833
234.597	28.2221
237.972	27.2636
241.346	24.5715
244.721	21.3319
248.096	17.5502
251.471	14.0255
254.846	11.3602
258.221	8.7068
261.595	6.40959
264.97	4.26708
268.345	1.6601
271.72	1.16151
275.095	1.70409
278.469	1.26636
281.844	1.30612
285.219	1.70294
288.594	1.66466
291.969	0.911392
295.344	3.30678
298.718	6.71463
302.093	9.6875
305.468	12.3377
308.843	15.8587
312.218	19.7809
315.592	23.1816
318.967	24.6409
322.342	24.6442
325.717	24.23
329.092	20.332
332.466	20.652
335.841	19.2638
339.216	20.4212
342.591	23.3245
345.966	27.2106
349.341	29.766
352.715	33.8083
356.09	28.9924
359.465	25.8477
362.84	21.6918
366.215	18.2264
369.589	16.1715
372.964	17.9502
376.339	16.6948
379.714	17.9306
383.089	13.9985
386.464	13.2916
389.838	12.8211
393.213	9.67836
396.588	6.74386
399.963	3.12759
403.338	0.371964
406.712	0.523628
410.087	0.777481
413.462	3.02493
416.837	2.5358
420.212	4.4314
423.587	2.57999
426.961	4.37723
430.336	1.90183
433.711	1.21187
437.086	1.71864
440.461	0.761147
443.835	2.43583
447.21	0.222832
450.585	0.523933
453.96	1.13762
457.335	0.689865
460.709	0.732056
464.084	1.25272
467.459	0.56044
470.834	0.694344
474.209	1.06889
477.584	1.0312
480.958	0.010117
484.333	3.28679
487.708	3.2121
491.083	3.41807
494.458	5.02901
497.832	4.56832
501.207	6.86281
504.582	6.5302
507.957	7.80755
511.332	9.34953
514.707	12.1666
518.081	14.7623
521.456	18.4189
524.831	22.2573
528.206	25.7556
531.581	27.065
534.955	26.7249
538.33	28.7312
541.705	28.673
545.08	27.7593
548.455	28.5137
551.83	30.8492
555.204	33.8188
558.579	31.6608
561.954	35.0718
565.329	38.609
568.704	39.179
572.078	41.2862
575.453	40.4042
578.828	37.6287
582.203	33.3032
585.578	30.2099
588.952	27.3143
592.327	22.3462
595.702	18.8604
599.077	14.9359
602.452	12.1316
605.827	7.2425
609.201	5.02433
612.576	2.5737
615.951	1.15579
619.326	0.099586
622.701	0.643112
626.075	0.861008
629.45	1.17704
632.825	1.46987
636.2	1.7294
639.575	3.3848
642.949	1.84299
646.324	3.70564
649.699	7.53925
653.074	12.1232
656.449	18.0424
659.824	29.8037
663.198	41.5417
666.573	59.4601
669.948	75.348
673.323	80.1833
676.698	61.3149
680.072	40.2249
683.447	26.944
686.822	18.4049
690.197	12.2624
693.572	11.0735
696.947	9.16279
700.321	8.70062
703.696	6.63621
707.071	5.56958
710.446	5.1576
713.821	4.54806
717.196	4.67687
720.57	4.80473
723.945	4.96371
727.32	5.48799
730.695	4.69121
734.07	4.37034
737.444	5.45299
740.819	3.52552
744.194	3.00714
747.569	4.26488
750.944	0.629387
754.318	2.04548
757.693	2.02103
761.068	1.28369
764.443	1.56527
767.818	2.57349
771.193	1.25002
774.567	0.823242
777.942	0.525452
781.317	0.788818
784.692	1.04274
788.067	1.19256
791.441	1.20034
794.816	0.328094
798.191	0.690651
801.566	0.060799
804.941	0.739044
808.316	0.712227
811.69	0.397629
815.065	1.00237
818.44	0.126602
821.815	1.56888
825.19	2.90438
828.564	2.51919
831.939	4.40868
835.314	4.53114
838.689	5.13062
842.064	5.64396
845.438	5.72126
848.813	5.94707
852.188	6.55721
855.563	8.74839
858.938	10.8278
862.313	13.3483
865.687	16.1058
869.062	17.4989
872.437	19.729
875.812	22.3449
879.187	19.7687
882.562	19.9862
885.936	17.4083
889.311	16.2319
892.686	16.0898
896.061	13.5175
899.436	12.5471
902.81	12.1852
906.185	10.8809
909.56	11.0922
912.935	13.4936
916.31	12.2821
919.684	12.8831
923.059	7.56722
926.434	5.25769
929.809	1.822
933.184	0.009865
936.558	0.141914
939.933	0.154106
943.308	1.55244
946.683	1.22061
950.058	1.62326
953.433	3.879
956.807	6.21851
960.182	11.9284
963.557	17.0365
966.932	19.76
970.307	23.2462
973.682	26.6892
977.056	26.7067
980.431	24.5396
983.806	22.4488
987.181	18.7165
990.556	14.7032
993.93	9.61233
997.305	6.53873
1000.68	5.3541
1004.05	1.57639
1007.43	2.99729
1010.8	0.88105
1014.18	1.01124
1017.55	0.34359
1020.93	0.425591
1024.3	0.877205
1027.68	0.432846
1031.05	1.90608
1034.43	0.407387
1037.8	2.21473
1041.18	1.72185
1044.55	1.73391
1047.93	4.11258
1051.3	5.89772
1054.68	8.65317
1058.05	10.7817
1061.43	12.7606
1064.8	13.9775
1068.18	13.5918
1071.55	12.8322
1074.93	10.9795
1078.3	9.06718
1081.68	9.31274
1085.05	9.40072
1088.42	6.72247
1091.8	9.52434
1095.17	10.7763
1098.55	10.1606
1101.92	9.8203
1105.3	9.87339
1108.67	8.80553
1112.05	5.84908
1115.42	4.64629
1118.8	4.51614
1122.17	3.61682
1125.55	4.25402
1128.92	2.5933
1132.3	3.54773
1135.67	2.25881
1139.05	2.64088
1142.42	1.89611
1145.8	1.66412
1149.17	1.37593
1152.55	1.96992
1155.92	1.07246
1159.3	1.25119
1162.67	1.48758
1166.05	0.070724
1169.42	1.06511
1172.8	0.372177
1176.17	0.569336
1179.55	0.93935
1182.92	1.81067
1186.3	1.79954
1189.67	1.46286
1193.05	3.57619
1196.42	3.1676
1199.79	2.83441
1203.17	4.6402
1206.54	2.42788
1209.92	4.12684
1213.29	3.19265
1216.67	2.95743
1220.04	2.51491
1223.42	3.81111
1226.79	0.615494
1230.17	2.61467
1233.54	2.64443
1236.92	2.17898
1240.29	1.17487
1243.67	1.84696
1247.04	2.36121
1250.42	2.66963
1253.79	2.49922
1257.17	1.67392
1260.54	2.64222
1263.92	1.88521
1267.29	3.27776
1270.66	1.0653
1274.04	2.47859
1277.41	0.572079
1280.79	1.95893
1284.16	0.129211
1287.54	1.8064
1290.91	1.23171
1294.29	1.45511
1297.66	0.152348
1301.04	1.1921
