Measurement: Raman, 780 nm, unoriented, Raman Data Processed
Mineral: Preobrazhenskite
Rruff sample: R090040
Ideal chemistry: Mg_3_B_11_O_15_(OH)_9_
Locality: Inder B deposit and salt dome, Atyrau Oblast, Kazakhstan
Source: Herb Obodda
Description: Colorless crystal fragment
Raman shift (cm-1)	intensity
95.9224	0
99.2972	182.635
102.672	4.00977
106.047	33.3525
109.422	56.6787
112.796	89.6182
116.171	40.749
119.546	15.3896
122.921	20.79
126.296	89.3477
129.671	76.7139
133.045	132.527
136.42	260.856
139.795	436.685
143.17	551.162
146.545	258.272
149.919	46.916
153.294	16.6025
156.669	51.2676
160.044	136.656
163.419	164.331
166.793	56.6787
170.168	64.0566
173.543	21.6113
176.918	4.7666
180.293	4.89844
183.667	26.1924
187.042	16.9229
190.417	42.2002
193.792	43.9014
197.167	60.8545
200.542	86.4639
203.916	57.9385
207.291	40.6523
210.666	49.4609
214.041	40.1523
217.416	74.6846
220.791	103.462
224.165	169.122
227.54	238.542
230.915	327.501
234.29	382.724
237.665	302.403
241.039	119.388
244.414	73.3428
247.789	73.3623
251.164	18.2207
254.539	30.6709
257.913	35.8125
261.288	33.874
264.663	24.3906
268.038	8.1748
271.413	57.5967
274.788	47.7832
278.162	74.999
281.537	59.7881
284.912	66.1133
288.287	88.0147
291.662	155.075
295.036	154.565
298.411	111.697
301.786	69.1269
305.161	43.502
308.536	41.5254
311.911	55.5469
315.285	100.043
318.66	114.251
322.035	131.887
325.41	177.023
328.784	314.013
332.159	480.886
335.534	659.226
338.909	353.458
342.284	112.737
345.659	60.8262
349.033	25.918
352.408	4.49316
355.783	3.16894
359.158	8.21484
362.533	8.68652
365.908	6.36035
369.282	8.9502
372.657	114.665
376.032	54.6318
379.407	79.7227
382.782	144.15
386.156	216.643
389.531	242.873
392.906	222.77
396.281	129.17
399.656	75.8603
403.031	51.3594
406.405	57.0762
409.78	60.4053
413.155	62.8672
416.53	22.0879
419.904	7.63184
423.279	4.44336
426.654	1.03027
430.029	15.0928
433.404	0.431641
436.779	32.2881
440.153	40.3711
443.528	99.3106
446.903	175.777
450.278	205.056
453.653	114.721
457.027	84.04
460.402	73.1582
463.777	81.5156
467.152	76.917
470.527	90.7939
473.902	86.5713
477.276	58.6143
480.651	34.666
484.026	47.5078
487.401	39.8916
490.776	43.6875
494.151	50.7812
497.525	77.1709
500.9	58.0234
504.275	59.208
507.65	73.1465
511.024	56.709
514.399	45.6592
517.774	36.7773
521.149	9.5
524.524	6.44531
527.899	31.9658
531.273	18.1904
534.648	4.32227
538.023	3.92481
541.398	9.91211
544.773	9.64746
548.148	32.8486
551.522	68.6084
554.897	82.71
558.272	103.93
561.647	83.3047
565.021	70.1103
568.396	47.4971
571.771	67.3379
575.146	76.6231
578.521	100.704
581.896	99.7983
585.27	56.4487
588.645	46.0786
592.02	37.7539
595.395	9.60986
598.77	11.4766
602.144	5.05713
605.519	35.4019
608.894	23.917
612.269	1.40234
615.644	4.14648
619.019	2.23096
622.393	6.71924
625.768	19.3159
629.143	27.7363
632.518	13.0391
635.893	25.0303
639.268	16.7105
642.642	29.2183
646.017	21.5654
649.392	45.8267
652.767	75.376
656.141	66.5991
659.516	81.5371
662.891	99.4639
666.266	86.8638
669.641	101.698
673.016	56.8716
676.39	52.9326
679.765	29.8638
683.14	18.4858
686.515	29.0635
689.89	40.3682
693.264	19.6621
696.639	23.293
700.014	4.33154
703.389	1.26318
706.764	8.27979
710.139	6.72119
713.513	14.208
716.888	21.9951
720.263	22.1484
723.638	6.80518
727.013	32.6553
730.388	31.9736
733.762	92.5244
737.137	102.339
740.512	148.548
743.887	174.049
747.261	225.538
750.636	269.994
754.011	261.968
757.386	209.394
760.761	142.315
764.136	75.8408
767.51	48.0874
770.885	32.2661
774.26	35.2949
777.635	36.5762
781.01	58.9204
784.385	58.6397
787.759	74.3701
791.134	87.9326
794.509	120.548
797.884	142.813
801.259	88.2353
804.633	45.249
808.008	46.2388
811.383	16.4062
814.758	2.56543
818.133	19.3989
821.507	15.0674
824.882	21.8081
828.257	18.7393
831.632	20.502
835.007	18.394
838.381	18.0283
841.756	16.709
845.131	5.33838
848.506	6.44482
851.881	1.35742
855.256	1.50439
858.63	11.9297
862.005	10.0327
865.38	20.2637
868.755	3.18603
872.13	11.0029
875.505	18.8838
878.879	15.6245
882.254	16.6631
885.629	37.1196
889.004	35.103
892.379	31.6406
895.753	80.9087
899.128	44.5078
902.503	55.3101
905.878	57.46
909.253	51.0508
912.627	46.706
916.002	32.3638
919.377	35.6309
922.752	18.5029
926.127	14.4815
929.501	16.9233
932.876	21.3213
936.251	9.96582
939.626	20.5132
943.001	12.0718
946.376	2.03711
949.75	5.45117
953.125	5.81299
956.5	4.60938
959.875	14.498
963.25	2.86133
966.625	11.5659
969.999	23.9145
973.374	33.6357
976.749	41.456
980.124	31.894
983.499	66.6138
986.873	69.521
990.248	83.936
993.623	44.3569
996.998	64.0478
1000.37	56.0117
1003.75	53.4497
1007.12	57.0249
1010.5	56.4961
1013.87	18.0498
1017.25	36.604
1020.62	24.5078
1024	12.9502
1027.37	18.6191
1030.75	12.4985
1034.12	24.4014
1037.5	35.081
1040.87	16.3809
1044.24	31.0776
1047.62	32.2524
1050.99	32.6992
1054.37	23.5527
1057.74	24.3467
1061.12	39.5791
1064.49	29.5659
1067.87	6.90527
1071.24	12.5102
1074.62	1.99707
1077.99	6.01807
1081.37	18.3296
1084.74	10.8594
1088.12	13.5464
1091.49	17.395
1094.87	6.31836
1098.24	24.0796
1101.62	15.2729
1104.99	7.79248
1108.37	13.769
1111.74	14.6479
1115.12	7.49072
1118.49	21.9883
1121.87	12.6646
1125.24	25.0928
1128.62	8.89648
1131.99	7.68164
1135.37	33.1177
1138.74	10.4863
1142.12	20.2602
1145.49	30.3408
1148.87	24.3672
1152.24	13.2764
1155.61	31.397
1158.99	24.3677
1162.36	26.3779
1165.74	38.7832
1169.11	29.6494
1172.49	22.6348
1175.86	35.4468
1179.24	30.2051
1182.61	40.0996
1185.99	35.9839
1189.36	19.0117
1192.74	53.731
1196.11	44.4077
1199.49	20.771
1202.86	45.8779
1206.24	38.019
1209.61	28.9448
1212.99	25.3374
1216.36	22.5713
1219.74	20.1802
1223.11	22.7188
1226.48	23.439
1229.86	12.2935
1233.23	7.69629
1236.61	26.936
1239.98	25.4453
1243.36	4.50049
1246.73	17.0718
1250.11	9.79883
1253.48	15.1338
1256.86	17.7993
1260.23	24.0645
1263.61	35.7544
1266.98	35.9219
1270.36	34.6274
1273.73	32.5806
1277.11	31.0112
1280.48	0.688965
1283.86	8.61914
