Measurement: Raman, 780 nm, unoriented, Raman Data Processed
Mineral: Priceite
Rruff sample: R050420
Ideal chemistry: Ca_2_B_5_O_7_(OH)_5_H_2_O
Locality: 20-Mule-Team Canyon, Death Valley, California, USA
Source: Marcus Origlieri
Description: White cryptocrystalline massive
Measured chemistry: Ca_2.00_B_5.00_O_7_(OH)_5_Â·H_2_O
Raman shift (cm-1)	intensity
144.405	0
147.298	3.1581
150.191	6.21827
153.084	7.33829
155.976	9.00689
158.869	5.10972
161.762	1.61171
164.654	0.213722
167.547	0.124619
170.44	1.30083
173.333	0.957047
176.225	1.18989
179.118	1.34173
182.011	0.930958
184.903	0.234959
187.796	0.921612
190.689	0.129086
193.581	0.927048
196.474	1.13975
199.367	1.41691
202.26	1.71217
205.152	2.15641
208.045	3.11958
210.938	3.30554
213.83	2.4655
216.723	2.8648
219.616	2.98999
222.508	4.19069
225.401	3.65899
228.294	5.19669
231.187	6.12923
234.079	7.08827
236.972	6.91334
239.865	6.429
242.757	4.54848
245.65	3.72131
248.543	2.33416
251.435	2.05345
254.328	2.45336
257.221	2.0275
260.114	1.60055
263.006	1.45416
265.899	0.309013
268.792	0.502682
271.684	0.373688
274.577	0.082935
277.47	1.02546
280.363	1.16299
283.255	0.844349
286.148	1.66577
289.041	1.44493
291.933	0.844799
294.826	0.969105
297.719	0.904934
300.611	0.456814
303.504	0.682987
306.397	0.611934
309.289	-0.06353
312.182	0.41752
315.075	0.174786
317.968	0.48943
320.86	-0.100743
323.753	0.465598
326.646	0.436787
329.538	0.126404
332.431	0.352146
335.324	0.21417
338.216	-0.0480721
341.109	0.153168
344.002	-0.0787769
346.895	0.738579
349.787	0.203987
352.68	0.71349
355.573	1.07232
358.465	2.39526
361.358	2.46026
364.251	3.56974
367.144	4.39763
370.036	5.77726
372.929	7.03894
375.822	7.95752
378.714	9.02003
381.607	7.83443
384.5	7.05065
387.392	5.16212
390.285	3.45598
393.178	3.86279
396.071	2.58711
398.963	2.94896
401.856	1.26041
404.749	1.59088
407.641	0.176262
410.534	0.157497
413.427	0.66909
416.32	1.39107
419.212	1.66596
422.105	1.02766
424.998	1.22374
427.89	0.830654
430.783	0.186157
433.676	0.198551
436.568	1.11577
439.461	1.11046
442.354	0.26897
445.247	1.40458
448.139	0.591583
451.032	0.015938
453.925	0.765987
456.817	0.090641
459.71	2.30536
462.603	2.97829
465.495	2.90381
468.388	2.61514
471.281	1.57806
474.173	0.891197
477.066	0.77018
479.959	0.182629
482.852	0.244385
485.744	0.519375
488.637	0.580032
491.53	1.02814
494.422	1.13253
497.315	1.59642
500.208	1.2823
503.101	1.78867
505.993	1.81702
508.886	1.93867
511.779	3.10224
514.671	3.42023
517.564	3.45516
520.457	2.83544
523.349	2.18508
526.242	2.25748
529.135	2.7317
532.028	1.33244
534.92	1.70567
537.813	0.952251
540.706	0.219807
543.598	0.648308
546.491	0.629162
549.384	1.19375
552.277	0.434868
555.169	0.990887
558.062	1.9462
560.955	1.68814
563.847	3.10363
566.74	4.51355
569.633	5.68514
572.525	4.53054
575.418	4.49876
578.311	3.88054
581.203	4.68602
584.096	4.70708
586.989	3.45139
589.882	2.80963
592.774	2.29049
595.667	2.0263
598.56	1.98551
601.452	2.04874
604.345	1.86905
607.238	2.08754
610.13	2.1641
613.023	2.63349
615.916	3.34993
618.809	2.53347
621.701	2.42055
624.594	1.19019
627.487	1.09919
630.379	0.099133
633.272	0.167244
636.165	0.131897
639.058	0.175461
641.95	0.078388
644.843	0.123768
647.736	0.334057
650.628	0.422733
653.521	0.514294
656.414	1.02589
659.307	0.503109
662.199	1.85027
665.092	2.19317
667.985	2.31221
670.877	2.80774
673.77	2.0432
676.663	0.783501
679.555	1.03207
682.448	1.38961
685.341	1.29463
688.234	1.48035
691.126	0.738735
694.019	1.40771
696.912	2.50747
699.804	2.73308
702.697	3.76192
705.59	3.39424
708.482	3.50676
711.375	4.45953
714.268	4.68196
717.16	5.20169
720.053	5.02733
722.946	5.84154
725.839	5.81391
728.731	6.06908
731.624	5.40496
734.517	5.10871
737.409	3.53774
740.302	3.33551
743.195	2.02185
746.087	1.83251
748.98	1.0342
751.873	0.240427
754.766	0.702473
757.658	0.032116
760.551	0.050449
763.444	0.351923
766.336	0.076134
769.229	0.087343
772.122	0.279654
775.014	0.341974
777.907	0.721434
780.8	0.247763
783.693	0.021942
786.585	0.34893
789.478	0.556837
792.371	0.314934
795.263	0.815468
798.156	1.36673
801.049	0.771933
803.942	1.58327
806.834	1.69896
809.727	1.90208
812.62	1.8113
815.512	2.38828
818.405	1.46805
821.298	1.91418
824.19	0.603079
827.083	1.92331
829.976	2.13515
832.869	2.15577
835.761	2.34851
838.654	1.82506
841.547	0.915936
844.439	1.37288
847.332	0.922722
850.225	0.918959
853.117	1.31011
856.01	0.777466
858.903	0.602137
861.796	0.710485
864.688	0.942049
867.581	1.17481
870.474	0.572849
873.366	0.87397
876.259	0.890963
879.152	0.315889
882.044	0.361471
884.937	0.473391
887.83	0.435183
890.723	0.733738
893.615	0.317896
896.508	0.500404
899.401	0.889997
902.293	0.74106
905.186	0.705244
908.079	0.407461
910.971	0.112074
913.864	0.319065
916.757	0.18177
919.65	0.280323
922.542	0.075314
925.435	0.133165
928.328	1.00178
931.22	0.192867
934.113	0.583759
937.006	0.419607
939.899	0.306646
942.791	0.545269
945.684	1.13579
948.577	1.146
951.469	0.782024
954.362	0.067301
957.255	0.885607
960.148	0.847099
963.04	0.665356
965.933	1.02813
968.826	1.26331
971.718	1.12593
974.611	1.02993
977.504	0.639034
980.396	1.15189
983.289	0.426008
986.182	0.272886
989.074	0.105015
991.967	0.821039
994.86	0.10309
997.753	0.66012
1000.64	0.454102
1003.54	0.181931
1006.43	0.478767
1009.32	0.66745
1012.22	1.50023
1015.11	0.892929
1018	0.742031
1020.89	1.59043
1023.79	1.43967
1026.68	1.24724
1029.57	1.22436
1032.46	1.47116
1035.36	0.160341
1038.25	0.711607
1041.14	0.454729
1044.04	1.45246
1046.93	0.811144
1049.82	0.675179
1052.71	1.01531
1055.61	1.23436
1058.5	0.883493
1061.39	0.160368
1064.29	0.002306
1067.18	0.035229
1070.07	0.084463
1072.96	0.550379
1075.86	0.66
1078.75	0.921768
1081.64	0.409706
1084.53	0.892073
1087.43	0.259344
1090.32	0.448742
1093.21	0.504868
1096.1	0.8867
1099	0.608173
1101.89	0.199526
1104.78	0.385286
1107.67	0.492765
1110.57	1.05038
1113.46	0.051214
1116.35	0.261927
1119.25	0.469156
1122.14	0.438976
1125.03	0.042175
1127.92	0.290882
1130.82	0.196499
1133.71	0.509548
1136.6	0.544643
1139.49	1.06514
1142.39	0.958324
1145.28	0.274895
1148.17	0.821789
1151.07	0.052887
1153.96	1.02239
1156.85	0.227695
1159.74	0.943893
1162.64	0.724136
1165.53	0.445702
1168.42	1.34089
1171.32	1.03363
1174.21	0.428875
1177.1	0.345177
1179.99	0.653851
1182.88	0.630627
1185.78	1.16641
1188.67	1.20368
1191.56	1.12586
1194.46	1.23073
1197.35	1.81045
1200.24	1.30177
1203.13	0.931507
1206.03	1.47982
1208.92	0.927185
1211.81	0.945694
1214.7	1.58323
1217.6	0.039803
1220.49	0.58839
1223.38	0.691502
1226.28	0.289257
1229.17	0.835396
1232.06	0.163445
1234.95	0.569618
1237.85	0.909752
1240.74	0.058727
1243.63	0.412514
1246.53	0.803764
1249.42	1.09964
1252.31	0.334866
1255.2	0.832233
1258.1	0.622978
1260.99	0.690193
1263.88	0.897591
1266.77	1.25008
1269.67	0.848202
1272.56	0.695782
1275.45	0.329094
1278.35	0.318119
1281.24	0.501144
1284.13	0.669224
1287.02	0.213837
