Measurement: Raman, 532 nm, unoriented, Raman Data Processed
Mineral: Priceite
Rruff sample: R110008
Ideal chemistry: Ca_2_B_5_O_7_(OH)_5_H_2_O
Locality: Synthetic
Source: Jin-Xiao Mi
Description: Spherical aggregates of colorless thin bladed crystals with distinct cleavage along the blades
Raman shift (cm-1)	intensity
187.941	0
190.833	5.52063
193.726	20.3727
196.619	20.6706
199.512	31.3787
202.404	47.8654
205.297	42.5852
208.19	54.907
211.082	54.2412
213.975	62.6895
216.868	62.5552
219.761	56.2344
222.653	72.7197
225.546	62.4028
228.439	64.905
231.331	70.6311
234.224	65.3198
237.117	78.8018
240.009	73.3157
242.902	69.2263
245.795	49.7466
248.688	45.6887
251.58	35.7332
254.473	25.4766
257.366	30.739
260.258	29.4895
263.151	33.6743
266.044	30.3569
268.936	26.4531
271.829	16.0862
274.722	14.4475
277.615	9.16479
280.507	1.00659
283.4	0.873291
286.293	12.6387
289.185	17.4363
292.078	15.4646
294.971	12.8232
297.863	1.01099
300.756	1.94922
303.649	11.0085
306.541	2.54004
309.434	7.19995
312.327	5.82227
315.22	8.0669
318.112	5.60547
321.005	1.62622
323.898	5.0708
326.791	6.54297
329.683	7.69092
332.576	6.50879
335.469	10.0232
338.361	0.861084
341.254	3.16968
344.147	4.59277
347.039	1.29834
349.932	8.10352
352.825	1.64819
355.717	13.1699
358.61	13.688
361.503	14.3626
364.396	17.2322
367.288	27.8704
370.181	33.8008
373.074	51.8767
375.966	59.3054
378.859	71.5666
381.752	74.3523
384.644	56.5593
387.537	37.3821
390.43	29.1086
393.323	24.6399
396.215	26.0439
399.108	19.249
402.001	14.1296
404.894	21.8481
407.786	4.58496
410.679	5.11108
413.572	2.39404
416.464	9.05786
419.357	12.0901
422.25	15.0769
425.142	4.13037
428.035	8.42163
430.928	12.0227
433.82	11.1052
436.713	8.41455
439.606	11.4966
442.499	19.6387
445.391	11.1748
448.284	5.90747
451.177	4.07129
454.069	6.36035
456.962	8.58594
459.855	7.05884
462.748	18.781
465.64	35.0688
468.533	26.8084
471.426	22.5371
474.318	10.0207
477.211	4.72144
480.104	2.35034
482.996	5.67285
485.889	0.086914
488.782	6.95532
491.675	13.1484
494.567	17.6201
497.46	14.419
500.353	20.9319
503.245	15.9854
506.138	14.4578
509.031	20.3899
511.923	27.1787
514.816	39.4502
517.709	36.3057
520.602	31.4504
523.494	20.2707
526.387	26.0969
529.28	21.6167
532.172	21.0371
535.065	19.6419
537.958	17.3105
540.851	8.76782
543.743	9.71655
546.636	4.53271
549.529	9.69092
552.421	10.4563
555.314	10.739
558.207	11.3289
561.099	18.4983
563.992	33.5259
566.885	51.3691
569.778	68.9253
572.67	59.5012
575.563	48.6677
578.456	46.2437
581.348	47.7109
584.241	52.5022
587.134	54.75
590.027	33.126
592.919	17.5515
595.812	9.28174
598.705	14.627
601.597	12.1506
604.49	4.05859
607.383	5.11694
610.275	9.90332
613.168	25.8997
616.061	30.7031
618.953	25.0029
621.846	16.5593
624.739	14.3455
627.632	5.91846
630.524	0.5625
633.417	3.79492
636.31	0.39209
639.202	5.60059
642.095	15.1536
644.988	12.169
647.881	10.0063
650.773	2.72729
653.666	1.73315
656.559	11.8491
659.451	14.2739
662.344	14.3611
665.237	17.2139
668.13	15.8816
671.022	19.5071
673.915	20.9524
676.808	11.2214
679.7	13.208
682.593	19.9812
685.486	18.7585
688.378	18.9268
691.271	22.5444
694.164	9.55908
697.057	16.4509
699.949	21.8618
702.842	36.1274
705.735	37.3804
708.627	38.0168
711.52	50.8652
714.413	46.5649
717.305	42.926
720.198	39.7751
723.091	41.3044
725.984	39.8159
728.876	51.374
731.769	52.0603
734.662	51.2625
737.554	35.5073
740.447	34.2214
743.34	20.3325
746.232	10.7285
749.125	9.55176
752.018	1.30395
754.91	0.675293
757.803	4.8291
760.696	6.2937
763.589	6.20044
766.481	4.19653
769.374	8.52759
772.267	0.700928
775.159	2.42358
778.052	10.8418
780.945	8.56909
783.838	9.25024
786.73	7.44116
789.623	2.93213
792.516	8.479
795.408	15.7173
798.301	13.6177
801.194	24.0586
804.087	25.9941
806.979	26.1323
809.872	33.8577
812.765	28.0523
815.657	19.562
818.55	24.3516
821.443	27.5308
824.335	24.2981
827.228	13.8232
830.121	18.4573
833.014	16.9165
835.906	20.519
838.799	17.4282
841.692	16.2656
844.584	13.0515
847.477	8.82983
850.37	8.36499
853.263	10.2429
856.155	5.2749
859.048	3.06836
861.941	2.22754
864.833	3.42188
867.726	6.44556
870.619	16.6209
873.511	16.1763
876.404	13.2358
879.297	13.5405
882.189	12.0935
885.082	2.82007
887.975	6.35425
890.868	3.53882
893.76	5.87744
896.653	11.3892
899.546	7.77368
902.438	17.1941
905.331	15.4102
908.224	13.9273
911.116	11.2275
914.009	7.70972
916.902	8.18335
919.795	3.96191
922.687	10.8101
925.58	11.2485
928.473	9.16577
931.365	12.5767
934.258	25.0024
937.151	15.6787
940.044	10.6887
942.936	8.93677
945.829	13.4343
948.722	2.8269
951.614	2.6145
954.507	9.03882
957.4	11.4456
960.293	12.2602
963.185	3.31079
966.078	16.9084
968.971	16.6465
971.863	8.05981
974.756	10.4099
977.649	10.427
980.541	16.5002
983.434	5.42969
986.327	7.17505
989.22	0.452881
992.112	2.90454
995.005	1.36963
997.898	4.18604
1000.79	15.1453
1003.68	8.97852
1006.58	5.74121
1009.47	9.64868
1012.36	10.5576
1015.25	16.9231
1018.15	11.6587
1021.04	13.5588
1023.93	7.31421
1026.83	7.82495
1029.72	11.4919
1032.61	1.23242
1035.5	20.0767
1038.4	20.52
1041.29	14.2617
1044.18	4.23511
1047.07	9.4353
1049.97	5.38184
1052.86	6.91235
1055.75	6.77979
1058.64	0.823975
1061.54	2.41772
1064.43	2.0603
1067.32	0.432617
1070.21	8.30908
1073.11	2.31714
1076	6.4668
1078.89	1.48682
1081.79	5.90845
1084.68	6.58081
1087.57	14.4902
1090.46	9.52563
1093.36	8.73657
1096.25	0.281494
1099.14	8.39795
1102.04	9.40039
1104.93	6.99219
1107.82	8.70264
1110.71	9.396
1113.61	7.93115
1116.5	6.70435
1119.39	11.2996
1122.28	12.7964
1125.18	7.80713
1128.07	7.32153
1130.96	8.45972
1133.86	7.82153
1136.75	4.04443
1139.64	4.40356
1142.53	6.98291
1145.43	9.10913
1148.32	12.446
1151.21	1.30933
1154.1	0.725342
1157	0.118652
1159.89	9.45068
1162.78	11.3269
1165.67	13.3438
1168.57	8.82471
1171.46	7.04004
1174.35	5.94482
1177.24	7.1145
1180.14	1.41431
1183.03	5.24829
1185.92	11.3621
1188.82	10.3765
1191.71	15.677
1194.6	13.2107
1197.49	8.86914
1200.39	14.4717
1203.28	11.074
1206.17	11.6519
1209.07	9.78027
1211.96	13.8193
1214.85	12.8547
1217.74	12.147
1220.64	11.6956
1223.53	12.604
1226.42	14.7026
1229.31	1.30835
1232.21	0.974854
1235.1	1.76514
1237.99	2.29492
1240.88	0.714355
1243.78	10.0452
1246.67	9.50171
1249.56	7.99512
1252.45	7.71777
1255.35	8.323
1258.24	5.83594
1261.13	10.1411
1264.03	14.2202
1266.92	9.42676
1269.81	14.6065
1272.7	7.54272
1275.6	6.68701
1278.49	0.349854
1281.38	7.62573
1284.28	5.33252
1287.17	2.16431
1290.06	9.98315
1292.95	10.3777
1295.85	4.34229
1298.74	4.18994
1301.63	2.57812
