Measurement: Raman, 532 nm, unoriented, Raman Data Processed
Mineral: Priceite
Rruff sample: R050420
Ideal chemistry: Ca_2_B_5_O_7_(OH)_5_H_2_O
Locality: 20-Mule-Team Canyon, Death Valley, California, USA
Source: Marcus Origlieri
Description: White cryptocrystalline massive
Measured chemistry: Ca_2.00_B_5.00_O_7_(OH)_5_Â·H_2_O
Raman shift (cm-1)	intensity
144.041	0
147.416	14.5492
150.79	26.5955
154.165	33.7024
157.54	18.7479
160.915	2.56078
164.29	0.342453
167.664	-0.0190558
171.039	1.03533
174.414	-0.335678
177.789	0.103499
181.164	0.72758
184.538	0.154968
187.913	0.430176
191.288	1.57812
194.663	1.75896
198.038	4.8268
201.412	5.28934
204.787	5.89252
208.162	10.0541
211.537	9.95026
214.912	8.60877
218.287	10.386
221.661	12.6813
225.036	15.389
228.411	17.1116
231.786	22.0629
235.161	29.1343
238.536	25.9567
241.91	14.9988
245.285	10.2426
248.66	4.37692
252.035	4.81911
255.41	6.7088
258.784	6.14278
262.159	3.26619
265.534	2.716
268.909	1.48909
272.284	0.37677
275.659	0.333359
279.033	1.15201
282.408	3.132
285.783	5.43494
289.158	5.66269
292.533	3.93166
295.907	1.60014
299.282	0.401245
302.657	1.02695
306.032	0.928604
309.407	0.341827
312.781	0.755234
316.156	0.513672
319.531	2.0743
322.906	1.53699
326.281	0.226547
329.656	2.21018
333.03	0.480011
336.405	1.1557
339.78	0.895325
343.155	0.910034
346.53	0.621765
349.904	0.570007
353.279	0.971085
356.654	2.92784
360.029	5.61398
363.404	11.0075
366.779	15.2195
370.153	22.5753
373.528	31.2499
376.903	33.6328
380.278	33.3868
383.653	29.2201
387.027	19.4311
390.402	14.5424
393.777	14.2346
397.152	12.6374
400.527	7.52316
403.901	1.24323
407.276	0.708282
410.651	2.24113
414.026	3.30302
417.401	5.39038
420.776	3.84854
424.15	3.22125
427.525	2.02312
430.9	0.122925
434.275	0.186676
437.65	1.73593
441.024	2.99686
444.399	4.18927
447.774	1.76836
451.149	1.15974
454.524	2.60794
457.899	5.27348
461.273	10.4058
464.648	15.7113
468.023	14.3938
471.398	7.34467
474.773	0.606339
478.147	0.957703
481.522	0.947464
484.897	0.647064
488.272	2.05394
491.647	4.80713
495.022	5.97176
498.396	5.27093
501.771	6.34758
505.146	9.28303
508.521	12.4419
511.896	18.2691
515.27	18.1579
518.645	16.8421
522.02	13.5833
525.395	11.0661
528.77	9.51604
532.145	5.76219
535.519	4.27585
538.894	4.11761
542.269	2.32104
545.644	3.40529
549.019	1.41675
552.394	1.99971
555.768	2.60559
559.143	7.07402
562.518	13.7202
565.893	20.1394
569.268	24.7038
572.642	23.1091
576.017	20.1439
579.392	20.804
582.767	22.6802
586.142	17.6026
589.516	12.695
592.891	6.58446
596.266	6.56793
599.641	7.11499
603.016	7.09186
606.39	10.6855
609.765	14.3414
613.14	17.2213
616.515	19.9733
619.89	16.3032
623.265	6.60431
626.639	4.22618
630.014	1.91596
633.389	0.73848
636.764	0.206772
640.139	0.25589
643.514	0.902313
646.888	1.22125
650.263	0.180405
653.638	2.93542
657.013	4.33635
660.388	3.95921
663.762	7.75194
667.137	8.74948
670.512	9.77478
673.887	8.33232
677.262	6.96217
680.636	6.87212
684.011	6.04471
687.386	7.31323
690.761	7.44066
694.136	8.86261
697.511	10.1287
700.885	13.4538
704.26	14.9994
707.635	19.4022
711.01	22.7165
714.385	24.9209
717.76	26.043
721.134	26.6511
724.509	30.983
727.884	32.0037
731.259	29.5949
734.634	27.2416
738.008	21.9968
741.383	16.3313
744.758	11.8218
748.133	5.52849
751.508	3.10466
754.882	2.27725
758.257	0.958511
761.632	1.41106
765.007	1.14967
768.382	0.619781
771.756	0.208893
775.131	0.693604
778.506	0.537872
781.881	0.729401
785.256	0.526169
788.631	0.972031
792.005	1.66263
795.38	3.24202
798.755	4.16368
802.13	5.18973
805.505	6.41621
808.88	9.44104
812.254	9.83363
815.629	8.72673
819.004	7.89384
822.379	6.84311
825.754	6.91196
829.128	6.57637
832.503	8.03572
835.878	8.79655
839.253	8.47343
842.628	9.36949
846.003	5.59822
849.377	3.47223
852.752	1.62378
856.127	2.38376
859.502	2.81834
862.877	3.33546
866.251	2.7382
869.626	3.16776
873.001	3.7466
876.376	1.733
879.751	1.38715
883.125	0.582397
886.5	0.716019
889.875	0.095581
893.25	1.95871
896.625	0.733734
900	2.3269
903.374	3.21466
906.749	3.46239
910.124	2.44716
913.499	1.11438
916.874	0.840286
920.249	1.57388
923.623	0.45636
926.998	1.01775
930.373	1.82427
933.748	0.958206
937.123	0.93779
940.497	2.73819
943.872	2.60017
947.247	1.90991
950.622	2.06956
953.997	2.7617
957.371	1.70731
960.746	3.05147
964.121	2.98718
967.496	2.36226
970.871	2.62236
974.245	5.0034
977.62	5.3132
980.995	5.77251
984.37	4.57517
987.745	1.45781
991.12	1.56448
994.494	0.552856
997.869	0.463196
1001.24	1.21518
1004.62	1.14409
1007.99	3.17131
1011.37	3.36787
1014.74	3.60933
1018.12	2.91061
1021.49	5.15894
1024.87	4.66162
1028.24	4.40691
1031.62	4.17548
1034.99	3.58574
1038.37	4.19045
1041.74	4.40924
1045.12	4.30617
1048.49	3.30394
1051.87	1.9729
1055.24	1.81433
1058.62	2.04697
1061.99	1.09976
1065.37	0.80571
1068.74	0.590576
1072.12	0.237869
1075.49	1.38985
1078.87	0.255951
1082.24	1.95993
1085.62	2.6486
1088.99	0.290634
1092.36	2.29059
1095.74	3.98416
1099.11	3.37804
1102.49	5.21565
1105.86	1.97253
1109.24	2.08076
1112.61	2.65178
1115.99	0.940323
1119.36	2.36546
1122.74	1.01083
1126.11	0.74057
1129.49	1.31717
1132.86	1.36447
1136.24	1.46326
1139.61	1.59659
1142.99	2.12604
1146.36	0.609299
1149.74	0.525177
1153.11	0.58403
1156.49	0.539505
1159.86	1.80028
1163.23	0.181122
1166.61	1.60855
1169.98	1.7377
1173.36	0.368546
1176.73	0.796463
1180.11	1.60786
1183.48	2.2012
1186.86	0.975204
1190.23	1.12428
1193.61	2.48627
1196.98	2.25366
1200.36	2.33221
1203.73	2.59152
1207.11	1.98853
1210.48	2.38889
1213.86	2.74991
1217.23	4.88284
1220.61	3.05276
1223.98	2.76407
1227.36	2.57342
1230.73	0.536682
1234.11	0.583984
1237.48	1.04126
1240.86	1.04016
1244.23	0.224884
1247.61	0.412018
1250.98	1.98996
1254.36	0.801453
1257.73	1.05142
1261.11	0.50238
1264.48	1.23962
1267.86	1.87616
1271.23	3.14783
1274.6	1.92184
1277.98	2.83154
1281.35	1.73788
1284.73	1.44589
1288.1	1.72028
1291.48	1.96964
1294.85	0.925171
1298.23	2.06442
1301.6	0.798828
