Measurement: Raman, 780 nm, unoriented, Raman Data Processed
Mineral: Priderite
Rruff sample: R130169
Ideal chemistry: K(Ti^4+^_7_Fe^3+^)O_16_
Locality: Vounnemiok River, Kola Peninsula, Russia
Source: Rock Currier
Description: Black prismatic crystals and massive in quartz
Measured chemistry: K_1.40_Ba_0.01_(Ti^4+^_7.13_Fe^3+^_0.68_)O_16_
Raman shift (cm-1)	intensity
99.8777	0
103.252	0.589287
106.627	7.82495
110.002	7.63326
113.377	9.54567
116.752	11.705
120.127	14.4582
123.501	17.2065
126.876	19.6351
130.251	22.08
133.626	21.8585
137.001	20.4711
140.375	18.979
143.75	14.1244
147.125	9.51687
150.5	7.14603
153.875	1.32331
157.25	0.636839
160.624	0.186538
163.999	0.246988
167.374	0.054129
170.749	0.119853
174.124	0.405509
177.498	0.157989
180.873	1.32318
184.248	2.03952
187.623	1.7274
190.998	2.12393
194.373	3.41069
197.747	3.4046
201.122	4.19485
204.497	5.4978
207.872	6.08502
211.247	8.11249
214.621	7.6984
217.996	7.92065
221.371	9.40177
224.746	9.01166
228.121	9.87834
231.495	11
234.87	12.0901
238.245	12.9577
241.62	14.1761
244.995	14.8912
248.369	14.6098
251.744	15.0671
255.119	15.1787
258.494	13.6164
261.869	11.6379
265.244	9.57222
268.618	7.08449
271.993	3.95571
275.368	2.19411
278.743	0.176275
282.118	0.417918
285.493	0.380308
288.867	0.248452
292.242	0.380783
295.617	1.642
298.992	4.04258
302.366	6.70633
305.741	6.88074
309.116	9.68812
312.491	10.0884
315.866	13.3656
319.241	13.0162
322.615	14.9362
325.99	14.8863
329.365	15.8252
332.74	15.8432
336.115	15.6543
339.49	16.1919
342.864	13.6599
346.239	11.2494
349.614	9.19759
352.989	8.67166
356.364	6.91852
359.738	6.06253
363.113	4.13306
366.488	2.02087
369.863	2.41854
373.238	0.296711
376.613	0.033821
379.987	0.063721
383.362	0.356166
386.737	0.91269
390.112	0.262377
393.486	0.298547
396.861	0.068931
400.236	0.67932
403.611	1.24842
406.986	1.98605
410.361	2.91
413.735	4.30593
417.11	5.20431
420.485	5.68261
423.86	7.35678
427.235	9.32531
430.61	10.5148
433.984	11.5757
437.359	12.5225
440.734	12.9408
444.109	13.8592
447.484	14.0924
450.858	14.1617
454.233	12.2118
457.608	12.9079
460.983	13.1613
464.358	12.9628
467.733	12.3517
471.107	11.2823
474.482	10.1738
477.857	9.38914
481.232	8.20498
484.606	7.64915
487.981	8.65041
491.356	7.10786
494.731	6.09331
498.106	7.45989
501.481	5.84338
504.855	4.87128
508.23	4.90845
511.605	2.88752
514.98	3.78407
518.355	2.08492
521.73	1.19727
525.104	0.16681
528.479	0.425869
531.854	0.659588
535.229	0.445272
538.604	0.001053
541.978	0.787233
545.353	0.655218
548.728	0.106034
552.103	1.14434
555.478	1.37666
558.852	2.35276
562.227	1.62556
565.602	1.43297
568.977	1.90524
572.352	1.3829
575.726	0.493022
579.101	0.750023
582.476	0.042825
585.851	0.295105
589.226	0.278945
592.601	0.141156
595.975	0.408314
599.35	0.258426
602.725	0.440713
606.1	0.190058
609.475	1.56195
612.85	3.4049
616.224	5.8245
619.599	8.5822
622.974	11.1399
626.349	14.667
629.723	18.12
633.098	20.4502
636.473	22.4787
639.848	26.9531
643.223	29.7091
646.598	31.484
649.972	32.9842
653.347	32.6437
656.722	31.7407
660.097	31.5575
663.472	27.9101
666.846	25.8085
670.221	22.7684
673.596	20.4911
676.971	17.5507
680.346	15.0909
683.721	11.9892
687.095	9.45038
690.47	8.72682
693.845	7.21102
697.22	5.81312
700.595	4.16678
703.97	2.3148
707.344	2.3438
710.719	1.99029
714.094	0.974966
717.469	0.164673
720.843	0.042406
724.218	0.957349
727.593	0.844504
730.968	0.13029
734.343	0.029135
737.718	0.585623
741.092	0.078136
744.467	0.317322
747.842	0.075992
751.217	0.0908532
754.592	0.13303
757.966	0.217494
761.341	0.608262
764.716	0.151183
768.091	0.064445
771.466	0.010763
774.841	0.39687
778.215	0.083751
781.59	0.333791
784.965	0.722765
788.34	1.71818
791.715	0.509596
795.089	1.26548
798.464	1.46408
801.839	1.82145
805.214	2.09459
808.589	2.15597
811.963	2.44853
815.338	2.01949
818.713	2.6371
822.088	2.86652
825.463	2.84779
828.838	2.57598
832.212	2.23203
835.587	1.85711
838.962	1.73653
842.337	1.64261
845.712	0.945788
849.087	0.370765
852.461	1.29173
855.836	1.58372
859.211	1.12974
862.586	0.528011
865.961	0.799817
869.335	0.096605
872.71	0.334361
876.085	0.717473
879.46	0.947278
882.835	0.293171
886.209	0.655806
889.584	1.13821
892.959	2.10236
896.334	0.326842
899.709	0.473923
903.083	0.45029
906.458	0.265144
909.833	0.30026
913.208	0.122092
916.583	0.272889
919.958	0.463556
923.332	0.144535
926.707	0.080216
930.082	0.270065
933.457	0.072904
936.832	0.380459
940.207	0.351367
943.581	0.021672
946.956	0.433403
950.331	0.831038
953.706	0.273435
957.081	0.050504
960.455	0.869138
963.83	0.081696
967.205	0.152473
970.58	0.847752
973.955	0.103769
977.329	0.052997
980.704	1.10263
984.079	0.146172
987.454	0.026846
990.829	0.011036
994.203	0.557886
997.578	0.129599
1000.95	0.183128
1004.33	0.459561
1007.7	0.817266
1011.08	0.737044
1014.45	0.243243
1017.83	0.042491
1021.2	0.768963
1024.58	0.533174
1027.95	0.659861
1031.33	0.509519
1034.7	0.365378
1038.08	0.63765
1041.45	1.07952
1044.83	0.408368
1048.2	0.468796
1051.58	0.406601
1054.95	0.856171
1058.33	0.964958
1061.7	0.903647
1065.08	0.308785
1068.45	0.492205
1071.82	0.064789
1075.2	0.448881
1078.57	0.378604
1081.95	0.918152
1085.32	0.401391
1088.7	0.709077
1092.07	0.322216
1095.45	0.416796
1098.82	0.231286
1102.2	0.067857
1105.57	0.448035
1108.95	0.039225
1112.32	0.145767
1115.7	0.241583
1119.07	0.118483
1122.45	0.240484
1125.82	0.47205
1129.2	0.818063
1132.57	0.029263
1135.95	0.420371
1139.32	0.16989
1142.69	0.399201
1146.07	0.117416
1149.44	0.526288
1152.82	0.529461
1156.19	0.408844
1159.57	0.73551
1162.94	0.151923
1166.32	0.217194
1169.69	0.748968
1173.07	0.623996
1176.44	0.392647
1179.82	0.329615
1183.19	0.24181
1186.57	0.70189
1189.94	0.728451
1193.32	0.902214
1196.69	0.489452
1200.07	1.31631
1203.44	0.821973
1206.82	0.159486
1210.19	0.248694
1213.57	0.299675
1216.94	0.335627
1220.32	0.034073
1223.69	0.4041
1227.07	0.038538
1230.44	0.563144
1233.82	0.189986
1237.19	0.048262
1240.57	0.726585
1243.94	0.230976
1247.32	0.357991
1250.69	0.660731
1254.06	0.035108
1257.44	0.282668
1260.81	0.222835
1264.19	1.25118
1267.56	0.393967
1270.94	0.962435
1274.31	0.947744
1277.69	0.527039
1281.06	0.127641
