Measurement: Raman, 532 nm, unoriented, Raman Data Processed
Mineral: Priderite
Rruff sample: R130169
Ideal chemistry: K(Ti^4+^_7_Fe^3+^)O_16_
Locality: Vounnemiok River, Kola Peninsula, Russia
Source: Rock Currier
Description: Black prismatic crystals and massive in quartz
Measured chemistry: K_1.40_Ba_0.01_(Ti^4+^_7.13_Fe^3+^_0.68_)O_16_
Raman shift (cm-1)	intensity
219.533	0
222.426	1.2419
225.319	0.845871
228.211	1.89226
231.104	3.17706
233.997	1.82922
236.889	2.97793
239.782	3.32161
242.675	3.44849
245.567	4.44153
248.46	4.43753
251.353	4.47099
254.245	3.86738
257.138	4.01586
260.031	4.1734
262.924	4.22155
265.816	2.49252
268.709	2.38446
271.602	1.57547
274.494	0.505778
277.387	0.504946
280.28	0.279543
283.173	0.270665
286.065	0.149839
288.958	0.042
291.851	0.102494
294.743	0.226187
297.636	0.005226
300.529	0.275171
303.421	0.348152
306.314	1.80425
309.207	2.13316
312.099	3.20974
314.992	3.61916
317.885	4.80912
320.778	5.06945
323.67	7.01647
326.563	7.51717
329.456	8.59974
332.348	9.90461
335.241	11.2395
338.134	11.0179
341.027	11.5908
343.919	10.7502
346.812	11.5694
349.705	10.4726
352.597	10.3539
355.49	8.96888
358.383	8.58435
361.276	7.35328
364.168	7.16357
367.061	5.77678
369.954	4.77741
372.846	4.15588
375.739	3.79869
378.632	2.2887
381.524	1.62719
384.417	0.631685
387.31	0.098501
390.202	0.119963
393.095	0.21614
395.988	0.098459
398.881	0.377302
401.773	0.463105
404.666	0.089525
407.559	0.340241
410.451	0.700988
413.344	0.752397
416.237	0.869465
419.13	0.482255
422.022	1.3204
424.915	0.465406
427.808	2.15126
430.7	1.62014
433.593	1.76023
436.486	2.86309
439.378	3.62514
442.271	3.18782
445.164	3.48412
448.057	4.81199
450.949	3.86015
453.842	4.6855
456.735	4.97895
459.627	4.62296
462.52	4.07727
465.413	4.52789
468.305	4.71796
471.198	3.37241
474.091	3.69684
476.983	3.10591
479.876	2.40125
482.769	2.43906
485.662	2.08044
488.554	1.93233
491.447	1.66506
494.34	2.10293
497.232	1.71658
500.125	1.60717
503.018	2.23551
505.911	1.28201
508.803	1.71752
511.696	0.639583
514.589	1.65902
517.481	1.099
520.374	1.31514
523.267	0.406319
526.159	0.240074
529.052	0.448044
531.945	0.549194
534.837	0.214524
537.73	0.00013
540.623	0.216295
543.516	0.210171
546.408	0.031206
549.301	0.096386
552.194	0.20108
555.086	0.063606
557.979	0.014712
560.872	0.320634
563.764	0.177296
566.657	0.832122
569.55	1.28473
572.443	1.25542
575.335	1.15609
578.228	1.92841
581.121	2.61566
584.013	2.22425
586.906	3.51989
589.799	3.04624
592.692	3.06312
595.584	2.24973
598.477	3.38911
601.37	2.53067
604.262	2.63917
607.155	1.81649
610.048	2.05761
612.94	1.24727
615.833	1.11378
618.726	0.598236
621.619	0.334092
624.511	0.368453
627.404	0.11737
630.297	0.058878
633.189	0.972855
636.082	1.68049
638.975	2.0818
641.867	2.47631
644.76	4.19672
647.653	5.59361
650.545	5.77708
653.438	7.40064
656.331	7.77361
659.224	8.54259
662.116	7.4887
665.009	7.59082
667.902	7.3418
670.794	7.46462
673.687	6.74395
676.58	6.26012
679.472	4.84842
682.365	4.79892
685.258	4.33904
688.151	3.32734
691.043	3.11262
693.936	3.29367
696.829	1.78743
699.721	2.03812
702.614	1.26354
705.507	1.46088
708.399	1.05564
711.292	0.618357
714.185	0.032114
717.078	0.611635
719.97	0.029201
722.863	0.620951
725.756	0.139765
728.648	0.310698
731.541	0.023973
734.434	0.093319
737.327	0.347841
740.219	0.050654
743.112	0.126322
746.005	0.0385
748.897	0.147968
751.79	0.114849
754.683	0.062448
757.575	0.046184
760.468	0.072318
763.361	0.073978
766.254	0.470955
769.146	0.408615
772.039	0.862295
774.932	0.934453
777.824	1.21395
780.717	0.631085
783.61	0.656633
786.502	2.08432
789.395	1.95788
792.288	2.5636
795.181	1.98212
798.073	2.98649
800.966	2.59705
803.859	2.99654
806.751	3.29838
809.644	3.55732
812.537	3.78352
815.429	3.05805
818.322	3.81694
821.215	3.46611
824.107	3.3315
827	3.32044
829.893	3.09194
832.786	2.21746
835.678	2.50393
838.571	2.52208
841.464	2.34153
844.356	2.07945
847.249	1.70461
850.142	1.2308
853.034	1.63603
855.927	0.811616
858.82	0.665324
861.713	0.450145
864.605	0.497153
867.498	0.407461
870.391	0.341201
873.283	1.30965
876.176	0.388146
879.069	0.039103
881.962	0.033956
884.854	0.216522
887.747	0.370992
890.64	0.080931
893.532	0.096341
896.425	0.614084
899.318	0.059658
902.21	0.115966
905.103	0.14589
907.996	0.482356
910.889	0.0963
913.781	0.484482
916.674	0.468265
919.567	0.155091
922.459	0.087796
925.352	0.832516
928.245	0.657874
931.137	0.383693
934.03	0.247069
936.923	0.430482
939.816	0.182965
942.708	0.614507
945.601	0.927608
948.494	0.582998
951.386	0.069738
954.279	0.263754
957.172	0.584672
960.064	0.42413
962.957	0.239728
965.85	0.307224
968.742	0.459933
971.635	0.558155
974.528	0.80011
977.421	-0.198788
980.313	0.229295
983.206	0.016504
986.099	0.435495
988.991	0.45602
991.884	-0.00178755
994.777	0.639091
997.669	0.605875
1000.56	0.361002
1003.46	0.53362
1006.35	0.271598
1009.24	0.175901
1012.13	0.690598
1015.03	0.495839
1017.92	0.006124
1020.81	0.67574
1023.7	0.61484
1026.6	0.583662
1029.49	0.542953
1032.38	0.050167
1035.28	0.065822
1038.17	0.415995
1041.06	0.731652
1043.95	0.114352
1046.85	0.541595
1049.74	0.375064
1052.63	0.105885
1055.52	0.363645
1058.42	0.053907
1061.31	0.325045
1064.2	0.312122
1067.09	0.143992
1069.99	0.418639
1072.88	0.384797
1075.77	0.124451
1078.66	0.031964
1081.56	0.095446
1084.45	0.404272
1087.34	0.246625
1090.24	0.66076
1093.13	0.407024
1096.02	0.586649
1098.91	0.118451
1101.81	0.42411
1104.7	0.184626
1107.59	0.206005
1110.48	0.174904
1113.38	0.616628
1116.27	0.306032
1119.16	0.768576
1122.06	0.243393
1124.95	0.113802
1127.84	0.092447
1130.73	0.047055
1133.63	0.321878
1136.52	0.580045
1139.41	0.536512
1142.3	0.165497
1145.2	0.090229
1148.09	0.210803
1150.98	0.354616
1153.88	0.019589
1156.77	0.024327
1159.66	0.132747
1162.55	0.201906
1165.45	0.167435
1168.34	0.423296
1171.23	0.457798
1174.12	0.29945
1177.02	0.337618
1179.91	0.791083
1182.8	0.504953
1185.69	0.047662
1188.59	0.251965
1191.48	0.076951
1194.37	0.179283
1197.27	0.077519
1200.16	0.435433
1203.05	0.601597
1205.94	0.025015
1208.84	0.332243
1211.73	0.409422
1214.62	0.002227
1217.52	0.185384
1220.41	0.381088
1223.3	0.388627
1226.19	0.057212
1229.09	0.614032
1231.98	0.160049
1234.87	0.14662
1237.76	0.472922
1240.66	0.031829
1243.55	0.463215
1246.44	0.1248
1249.33	0.202662
1252.23	0.633008
1255.12	0.284556
1258.01	0.221028
1260.9	0.753502
1263.8	0.603882
1266.69	0.646167
1269.58	0.207681
1272.48	0.84825
1275.37	0.611295
1278.26	0.240755
1281.15	0.354895
1284.05	0.534033
1286.94	0.090342
1289.83	0.25473
1292.72	0.232365
1295.62	0.004432
