Measurement: Raman, 514 nm, unoriented, Raman Data Processed
Mineral: Probertite
Rruff sample: R050284
Ideal chemistry: NaCaB_5_O_7_(OH)_4_3H_2_O
Locality: Borax Open Pit, Boron, Kern County, California, USA
Source: Marcus Origlieri
Description: Spray of colorless acicular single crystals
Measured chemistry: Na_1.00_Ca_1.00_B_5.00_O_7_(OH)_4_Â·3H_2_O
Raman shift (cm-1)	intensity
155.862	0
160.008	79.626
164.153	440.801
168.296	881.179
172.436	1610.94
176.575	1225.51
180.712	541.783
184.846	372.375
188.979	172.104
193.11	349.453
197.239	455.134
201.366	282.83
205.49	75.288
209.613	135.713
213.734	290.161
217.853	385.312
221.97	226.595
226.085	209.564
230.198	283.097
234.309	377.035
238.419	381.451
242.526	666.756
246.631	623.159
250.734	500.56
254.836	388.803
258.935	307.717
263.033	127.165
267.128	182.947
271.222	162.872
275.313	132.73
279.403	107.503
283.491	57.849
287.576	398.317
291.66	498.909
295.742	878.846
299.822	1336.77
303.9	2174.45
307.976	2262.64
312.05	2121.3
316.123	1780.63
320.193	1112.32
324.261	888.846
328.328	406.782
332.392	495.167
336.455	593.655
340.515	552.01
344.574	616.293
348.631	778.059
352.686	1205.4
356.739	1442.16
360.79	1198.51
364.839	764.571
368.886	440.419
372.932	456.095
376.975	390.512
381.016	302.272
385.056	313.37
389.094	414.735
393.129	616.357
397.163	418.146
401.195	640.229
405.225	722.465
409.254	714.836
413.28	467.33
417.304	489.936
421.327	532.639
425.347	434.861
429.366	411.641
433.383	440.717
437.398	357.367
441.411	468.785
445.422	388.527
449.431	496.934
453.438	682.252
457.444	771.057
461.447	784.826
465.449	788.852
469.449	764.584
473.447	755.881
477.443	753.014
481.437	860.107
485.429	808.838
489.42	1043.89
493.408	1058.92
497.395	484.061
501.38	320.059
505.363	315.604
509.344	420.744
513.323	216.186
517.3	261.373
521.276	756.758
525.249	1362.21
529.221	907.76
533.191	762.787
537.159	537.822
541.125	653.062
545.09	798.201
549.052	883.441
553.013	1498.8
556.971	2914.07
560.928	2589.36
564.883	1674.64
568.837	1249.92
572.788	695.191
576.737	790.451
580.685	1215.7
584.631	1430.95
588.575	746.256
592.517	242.055
596.457	168.311
600.396	94.977
604.332	68.34
608.267	21.531
612.2	48.926
616.131	71.137
620.061	97.74
623.988	11.307
627.914	82.389
631.837	13.982
635.759	291.465
639.68	157.385
643.598	130.664
647.514	175.906
651.429	352.902
655.342	387.877
659.253	81.619
663.162	166.408
667.07	200.488
670.975	157.971
674.879	191.562
678.781	85.148
682.681	58.918
686.579	333.002
690.476	386.297
694.371	605.721
698.264	259.139
702.155	327.826
706.044	220.598
709.932	502.918
713.817	555.422
717.701	636.061
721.583	1139.29
725.464	1581.08
729.342	2252.62
733.219	2294.35
737.094	1256.05
740.967	457.758
744.838	589.029
748.708	759.76
752.575	950.539
756.441	800.914
760.306	147.834
764.168	285.25
768.028	431.709
771.887	278.355
775.744	192.311
779.6	195.406
783.453	86.133
787.305	62.789
791.155	268.277
795.003	183.162
798.849	216.131
802.694	7.342
806.537	78.879
810.378	65.238
814.217	99.135
818.054	224.475
821.89	199.77
825.724	234.549
829.556	129.553
833.387	283.742
837.216	308.129
841.042	104.283
844.868	299.822
848.691	94.488
852.513	48.598
856.333	312.676
860.151	366.574
863.967	610.258
867.782	253.951
871.595	367.555
875.406	361.088
879.215	304.559
883.023	317.967
886.829	411.311
890.633	4.59
894.435	87.805
898.236	300.963
902.035	224.076
905.832	507.148
909.627	690.178
913.421	352.893
917.213	695.914
921.003	948.939
924.792	1252
928.578	1239.26
932.363	1120.06
936.147	822.221
939.928	324.486
943.708	115.975
947.486	518.432
951.262	583.617
955.037	714.096
958.81	368.504
962.581	326.277
966.35	136.465
970.118	229.98
973.884	341.613
977.649	364.609
981.411	298.705
985.172	3.197
988.931	58.457
992.689	37.391
996.444	437.27
1000.2	495.193
1003.95	108.508
1007.7	348.787
1011.45	103.703
1015.2	59.848
1018.94	614.625
1022.69	610.896
1026.43	647.689
1030.17	774.684
1033.91	782.27
1037.64	659.037
1041.38	715.873
1045.11	622.312
1048.85	600.35
1052.58	857.217
1056.3	925.035
1060.03	701.84
1063.76	718.635
1067.48	446.107
1071.2	444.416
1074.92	501.078
1078.64	667.691
1082.36	395.252
1086.07	153.238
1089.78	280.787
1093.49	128.256
1097.2	105.592
1100.91	194.404
1104.62	531.625
1108.33	448.811
1112.03	35.857
1115.73	133.568
1119.43	169.051
1123.13	61.826
1126.82	474.643
1130.52	872.945
1134.21	540.621
1137.9	678.762
1141.59	185.939
1145.28	113.723
1148.97	301.67
1152.65	21.193
1156.34	631.547
1160.02	654.197
1163.7	603.832
1167.38	572.01
1171.05	385.5
1174.73	112.744
1178.4	271.49
1182.07	639.617
1185.74	720.523
1189.41	1058.37
1193.08	1066.01
1196.74	927.551
1200.4	383.918
1204.07	586.934
1207.72	597.977
1211.38	597.289
1215.04	624.48
1218.69	891.332
1222.35	1127.52
1226	1043.44
1229.65	948.711
1233.3	464.168
1236.95	467.656
1240.59	480.844
1244.23	373.234
1247.88	794.988
1251.52	826.375
1255.15	606.145
1258.79	976.344
1262.43	437.133
1266.06	328.227
1269.69	465.391
1273.32	423.613
1276.95	259.824
1280.58	484.211
1284.2	1243.44
1287.83	798.32
1291.45	268.828
1295.07	399.383
1298.69	60.016
1302.31	138.055
1305.92	100.828
1309.54	135.047
1313.15	360.938
1316.76	485.426
1320.37	566.98
1323.98	389.113
1327.59	170.027
1331.19	249.949
1334.79	18.398
1338.39	72.77
1341.99	83.707
1345.59	150.16
1349.19	565.957
1352.78	681.684
1356.38	716.91
1359.97	750.73
1363.56	883.148
1367.15	327.891
1370.73	421.941
1374.32	365.273
1377.9	586.75
1381.48	508.73
1385.07	794.938
1388.64	1100.22
1392.22	1085.19
1395.8	966.512
1399.37	799.242
1402.94	677.199
1406.52	761.555
1410.08	340.707
1413.65	336.203
1417.22	467.66
1420.78	463.578
1424.35	685.969
1427.91	900.551
1431.47	1019.19
1435.03	807.594
1438.58	922.09
1442.14	600.031
1445.69	696.805
1449.24	243.84
1452.79	230.168
1456.34	145.703
1459.89	469.281
1463.43	1157.57
1466.98	889.812
1470.52	1262.55
1474.06	1382.88
1477.6	1274.44
1481.14	1211.56
1484.67	1179.14
1488.21	553.621
1491.74	467.152
1495.27	93.988
1498.8	524.309
1502.33	257.289
1505.86	716.25
1509.38	690.863
1512.91	1086.82
1516.43	1214.47
1519.95	839.535
