Measurement: Raman, 780 nm, unoriented, Raman Data Processed
Mineral: Prosopite
Rruff sample: R050668
Ideal chemistry: CaAl_2_F_4_(OH)_4_
Locality: Grand Reef mine, Klondyke, Aravaipa District, Graham County, Arizona, USA
Source: University of Arizona Mineral Museum
Description: Light-blue massive coating on quartz
Raman shift (cm-1)	intensity
145.54	0
148.433	0.488136
151.326	2.52632
154.218	4.74423
157.111	7.63205
160.004	7.43383
162.897	6.73447
165.789	6.94284
168.682	9.65956
171.575	13.1054
174.467	10.1081
177.36	5.96403
180.253	4.762
183.145	5.14156
186.038	7.91523
188.931	11.4365
191.823	11.1142
194.716	8.39468
197.609	9.09532
200.502	8.82103
203.394	4.31393
206.287	1.55241
209.18	0.259506
212.072	0.479809
214.965	1.0605
217.858	1.37661
220.75	4.34192
223.643	5.21667
226.536	7.50642
229.429	7.10816
232.321	8.16209
235.214	9.74813
238.107	9.55489
240.999	10.1361
243.892	8.77769
246.785	6.07883
249.677	6.2264
252.57	4.74553
255.463	6.20013
258.356	7.96093
261.248	6.88507
264.141	3.65494
267.034	1.21685
269.926	0.30044
272.819	0.807121
275.712	0.271921
278.604	0.247602
281.497	0.535295
284.39	1.09642
287.283	1.27207
290.175	1.35905
293.068	1.58566
295.961	3.06125
298.853	4.25547
301.746	5.97753
304.639	6.30075
307.531	6.42592
310.424	7.79762
313.317	8.89724
316.209	9.46166
319.102	9.65744
321.995	8.41719
324.888	6.82002
327.78	3.58838
330.673	2.73441
333.566	1.00553
336.458	0.802151
339.351	0.797209
342.244	0.698654
345.137	0.566538
348.029	0.096504
350.922	0.522812
353.815	0.82449
356.707	0.729137
359.6	1.26836
362.493	0.866735
365.385	1.56172
368.278	1.5708
371.171	2.11654
374.063	2.36642
376.956	1.97756
379.849	1.60676
382.741	0.552364
385.634	0.103006
388.527	0.453306
391.42	1.00251
394.312	1.09675
397.205	1.3124
400.098	2.74058
402.99	2.24805
405.883	3.04004
408.776	2.7928
411.668	3.17846
414.561	4.56484
417.454	5.25539
420.347	5.02185
423.239	5.23689
426.132	4.14063
429.025	2.24037
431.917	2.29559
434.81	0.661488
437.703	0.494104
440.596	0.738819
443.488	0.959959
446.381	1.3094
449.274	1.13264
452.166	1.69477
455.059	1.39305
457.952	0.363295
460.844	0.365974
463.737	0.654383
466.63	0.23451
469.522	0.44964
472.415	0.225792
475.308	0.151207
478.201	0.077309
481.093	0.47262
483.986	0.273819
486.879	0.167156
489.771	0.72669
492.664	0.103226
495.557	0.999367
498.45	0.111246
501.342	0.534639
504.235	0.330696
507.128	1.3824
510.02	2.29749
512.913	2.31065
515.806	2.99488
518.698	2.84518
521.591	2.93915
524.484	2.88485
527.376	3.89822
530.269	5.0018
533.162	4.67007
536.055	5.37692
538.947	6.74876
541.84	8.36631
544.733	9.97279
547.625	10.2196
550.518	12.6679
553.411	13.0345
556.303	14.206
559.196	14.6668
562.089	16.3259
564.981	17.4923
567.874	18.5517
570.767	19.3269
573.66	18.3883
576.552	15.771
579.445	13.1761
582.338	11.4021
585.23	10.1669
588.123	8.54797
591.016	7.53538
593.909	7.31445
596.801	4.46629
599.694	3.83333
602.587	2.25435
605.479	2.46603
608.372	0.927422
611.265	1.1119
614.157	0.639042
617.05	0.022839
619.943	1.23908
622.836	1.90594
625.728	0.926126
628.621	1.31514
631.514	1.44037
634.406	1.31451
637.299	1.92791
640.192	1.1887
643.084	1.18178
645.977	0.511847
648.87	1.38298
651.763	0.767006
654.655	0.386635
657.548	0.156635
660.441	0.741962
663.333	0.709793
666.226	0.638636
669.119	1.07261
672.011	0.35885
674.904	0.701511
677.797	0.409473
680.689	0.269037
683.582	0.82844
686.475	0.676495
689.368	0.551535
692.26	0.107504
695.153	0.159136
698.046	0.862272
700.938	0.585037
703.831	0.455153
706.724	0.523743
709.616	0.035938
712.509	0.669708
715.402	0.471621
718.294	0.685169
721.187	0.64572
724.08	1.59491
726.973	1.76455
729.865	1.35215
732.758	2.67309
735.651	2.86907
738.543	2.82116
741.436	3.47973
744.329	2.65297
747.221	3.61451
750.114	2.43007
753.007	3.17504
755.9	2.7034
758.792	2.31336
761.685	1.76633
764.578	2.94565
767.47	2.34356
770.363	3.4122
773.256	2.82191
776.149	3.12514
779.041	3.18217
781.934	3.06408
784.827	3.2502
787.719	2.21929
790.612	2.74212
793.505	2.67679
796.397	2.02705
799.29	1.59824
802.183	0.992092
805.075	0.576836
807.968	1.37995
810.861	0.157848
813.754	0.607615
816.646	0.544098
819.539	0.656815
822.432	0.159492
825.324	0.153591
828.217	0.262144
831.11	0.52207
834.002	0.666698
836.895	1.13753
839.788	0.178278
842.681	0.083344
845.573	0.175348
848.466	1.3015
851.359	0.906418
854.251	1.13561
857.144	0.823965
860.037	1.43483
862.929	1.39209
865.822	1.38408
868.715	0.97831
871.607	0.811863
874.5	0.521641
877.393	0.321722
880.286	0.575954
883.178	1.04828
886.071	0.94838
888.964	0.527903
891.856	0.602304
894.749	1.06262
897.642	0.166851
900.534	0.239607
903.427	1.06506
906.32	0.603029
909.213	0.598288
912.105	0.060869
914.998	0.531912
917.891	0.342311
920.783	0.12602
923.676	0.068893
926.569	0.667816
929.462	0.7265
932.354	0.394777
935.247	0.702223
938.14	1.57611
941.032	0.564041
943.925	0.606546
946.818	0.417087
949.71	0.535046
952.603	0.884485
955.496	0.353023
958.388	0.685444
961.281	1.22884
964.174	1.02694
967.067	0.354369
969.959	0.849685
972.852	0.777331
975.745	0.078678
978.637	0.96287
981.53	1.30573
984.423	1.55972
987.315	0.522451
990.208	2.36048
993.101	2.01945
995.994	3.01087
998.886	3.8272
1001.78	2.80288
1004.67	2.62403
1007.56	2.55316
1010.46	2.63446
1013.35	2.25592
1016.24	2.83822
1019.13	2.76242
1022.03	1.61427
1024.92	2.3696
1027.81	2.01324
1030.71	1.56143
1033.6	1.12859
1036.49	1.00035
1039.38	0.738008
1042.28	1.33736
1045.17	0.807807
1048.06	0.91648
1050.95	1.07756
1053.85	0.904634
1056.74	0.639511
1059.63	0.059205
1062.53	0.730677
1065.42	0.385576
1068.31	0.699936
1071.2	0.909752
1074.1	0.179911
1076.99	0.449967
1079.88	0.728155
1082.77	1.82548
1085.67	0.965441
1088.56	2.34087
1091.45	1.92299
1094.35	2.35102
1097.24	2.00997
1100.13	1.5736
1103.02	0.982406
1105.92	0.483819
1108.81	0.021704
1111.7	0.331963
1114.59	0.77683
1117.49	0.072916
1120.38	0.045967
1123.27	0.677507
1126.16	0.997205
1129.06	0.307965
1131.95	0.403156
1134.84	0.035556
1137.74	0.066855
1140.63	0.660574
1143.52	0.177614
1146.41	0.338088
1149.31	0.690805
1152.2	0.307241
1155.09	0.366578
1157.98	1.38372
1160.88	0.622813
1163.77	1.19758
1166.66	0.274354
1169.56	1.61756
1172.45	1.66733
1175.34	2.54402
1178.23	1.39113
1181.13	2.71346
1184.02	1.52992
1186.91	2.60031
1189.8	2.39383
1192.7	1.80978
1195.59	2.03125
1198.48	0.482412
1201.38	1.28535
1204.27	0.614063
1207.16	0.610845
1210.05	1.68518
1212.95	1.16294
1215.84	0.821825
1218.73	1.0328
1221.62	1.20556
1224.52	1.01013
1227.41	0.835977
1230.3	0.493058
1233.19	0.21867
1236.09	0.861176
1238.98	0.333011
1241.87	0.61089
1244.77	0.067779
1247.66	0.01732
1250.55	0.67242
1253.44	0.129516
1256.34	0.761966
1259.23	0.01932
1262.12	0.450653
1265.01	1.10696
1267.91	0.835245
1270.8	0.002285
1273.69	0.757799
1276.59	0.312394
1279.48	0.640708
1282.37	0.755115
1285.26	0.064414
