Measurement: Raman, 785 nm, unoriented, Raman Data Processed
Mineral: Proto-ferro-suenoite
Rruff sample: R061000
Ideal chemistry: [box]Mn^2+^_2_Fe^2+^_5_Si_8_O_22_(OH)_2_
Locality: Yokoneyama, Tochigi, Japan
Source: Michael Scott
Description: Gray prismatic to fibrous associated with pyroxmangite R060999
Raman shift (cm-1)	intensity
165.401	0
168.293	521.066
171.186	854.637
174.079	814.518
176.971	465.902
179.864	140.092
182.757	29.2441
185.649	54.625
188.542	38.8242
191.435	30.1152
194.328	51.7832
197.22	183.938
200.113	139.383
203.006	207.918
205.898	155.465
208.791	152.838
211.684	210.125
214.577	279.574
217.469	406.26
220.362	445.365
223.255	463.518
226.147	403.232
229.04	231.922
231.933	163.889
234.825	172.379
237.718	311.166
240.611	265.617
243.504	153.309
246.396	31.5664
249.289	64.6856
252.182	91.0898
255.074	142.49
257.967	185.705
260.86	122.719
263.752	49.5742
266.645	42.5234
269.538	31.8438
272.43	32.3457
275.323	21.9297
278.216	13.5332
281.109	116.168
284.001	249.68
286.894	63.8887
289.787	62.0605
292.679	33.7188
295.572	3.52539
298.465	107.865
301.358	252.238
304.25	336.566
307.143	415.519
310.036	333.397
312.928	231.791
315.821	133.881
318.714	126.764
321.606	90.2109
324.499	97.3164
327.392	327.461
330.284	309.537
333.177	408.207
336.07	308.481
338.963	224.035
341.855	244.906
344.748	344.432
347.641	379.619
350.533	342.522
353.426	442.877
356.319	394.072
359.212	247.158
362.104	201.824
364.997	395.018
367.889	596.053
370.782	885.533
373.675	861.09
376.568	913.836
379.46	797.842
382.353	335.228
385.246	293.938
388.138	8.65625
391.031	131.58
393.924	179.225
396.817	263.016
399.709	170.836
402.602	189.059
405.495	32.8027
408.387	7.6875
411.28	16.8867
414.173	105.17
417.065	204.377
419.958	136.219
422.851	178.08
425.743	27.6777
428.636	40.4453
431.529	20.9238
434.422	41.7773
437.314	47.5918
440.207	20.8789
443.1	148.602
445.992	231.424
448.885	42.7578
451.778	24.709
454.671	31.3164
457.563	9.34766
460.456	68.1856
463.349	132.188
466.241	139.199
469.134	160.75
472.027	77.8535
474.919	80.4668
477.812	35.5215
480.705	138.531
483.598	153.102
486.49	417.231
489.383	411.764
492.276	226.361
495.168	292.109
498.061	253.621
500.954	327.879
503.846	268.934
506.739	495.211
509.632	608.717
512.524	609.555
515.417	791.908
518.31	792.58
521.203	630.494
524.095	419.022
526.988	420.248
529.881	357.861
532.773	214.344
535.666	291.496
538.559	217.051
541.451	259.754
544.344	202.293
547.237	213.953
550.13	194.357
553.022	193.746
555.915	210.107
558.808	238.17
561.7	189.863
564.593	11.252
567.486	118.984
570.378	125.465
573.271	42.4551
576.164	24.6406
579.057	0.939453
581.949	83.9629
584.842	29.3516
587.735	31.6309
590.627	106.084
593.52	26.7012
596.413	43.6152
599.305	137.795
602.198	36.1895
605.091	180.084
607.984	275.059
610.876	238.856
613.769	278.227
616.662	246.371
619.554	366.31
622.447	305.309
625.34	449.787
628.232	457.359
631.125	465.144
634.018	568.146
636.91	574.789
639.803	722.928
642.696	793.172
645.589	1185.24
648.481	1568.15
651.374	2256.78
654.267	3066.72
657.159	3531.39
660.052	3157.97
662.945	2171.43
665.837	1307.67
668.73	901.736
671.623	652.432
674.516	457.449
677.408	572.965
680.301	298.662
683.194	153.19
686.086	238.391
688.979	273.361
691.872	227.877
694.764	199.42
697.657	204.918
700.55	67.0644
703.443	23.0117
706.335	37.8379
709.228	44.7246
712.121	102.586
715.013	66.4961
717.906	104.779
720.799	113.383
723.692	7.88672
726.584	65.6465
729.477	179.109
732.37	85.5352
735.262	69.6621
738.155	3.00977
741.048	114.703
743.94	88.7363
746.833	182.191
749.726	152.137
752.618	126.746
755.511	150.67
758.404	98.0918
761.297	84.3203
764.189	90.2949
767.082	165.514
769.975	302.32
772.867	269.127
775.76	217.666
778.653	222.133
781.545	150.248
784.438	184.498
787.331	245.852
790.223	219.4
793.116	113.982
796.009	95.2969
798.902	141.484
801.794	193.293
804.687	214.58
807.58	150.889
810.472	211.58
813.365	231.07
816.258	189.193
819.15	272.402
822.043	65.7598
824.936	173.279
827.829	159.941
830.721	102.699
833.614	153.67
836.507	94.7344
839.399	55.2969
842.292	0.492188
845.185	68.9297
848.077	46.4824
850.97	83.3106
853.863	90.8769
856.756	46.3477
859.648	74.3789
862.541	97.0684
865.434	0.421875
868.326	18.2227
871.219	31.3047
874.112	94.0156
877.005	81.0273
879.897	26.9531
882.79	85.5312
885.683	32.9355
888.575	55.6367
891.468	9.29883
894.361	55.375
897.253	90.5273
900.146	72.2012
903.039	76.334
905.932	164.639
908.824	196.234
911.717	177.938
914.61	30.5684
917.502	36.4707
920.395	45.1172
923.288	61.6523
926.18	32.1113
929.073	128.975
931.966	109.891
934.858	133.959
937.751	103.606
940.644	15.1973
943.537	31.9258
946.429	44.6895
949.322	57.3008
952.215	55.9902
955.107	158.824
958	124.66
960.893	110.717
963.785	147.731
966.678	115.375
969.571	100.705
972.463	235.506
975.356	190.938
978.249	98.9902
981.142	261.164
984.034	167.797
986.927	47.9395
989.82	48.375
992.712	48.8691
995.605	74.9629
998.498	257.299
1001.39	206.938
1004.28	287.275
1007.18	287.648
1010.07	230.065
1012.96	402.328
1015.85	570.785
1018.75	713.148
1021.64	731.146
1024.53	753.994
1027.42	572.268
1030.32	627.65
1033.21	344.31
1036.1	272.429
1039	235.472
1041.89	175.096
1044.78	86.916
1047.67	107.623
1050.57	81.0019
1053.46	45.75
1056.35	3.69922
1059.24	186.946
1062.14	91.1006
1065.03	78.1494
1067.92	29.6055
1070.82	22.9287
1073.71	32.3027
1076.6	40.5625
1079.49	84.7773
1082.39	14.043
1085.28	45.5947
1088.17	40.7656
1091.06	105.14
1093.96	166.535
1096.85	87.9199
1099.74	134.885
1102.63	34.956
1105.53	116.298
1108.42	56.9297
1111.31	125.512
1114.21	69.6777
1117.1	148.456
1119.99	134.177
1122.88	137.049
1125.78	137.548
1128.67	164.553
1131.56	160.422
1134.45	230.12
1137.35	211.281
1140.24	179.611
1143.13	186.686
1146.03	202.272
1148.92	161.017
1151.81	164.517
1154.7	32.8486
1157.6	113.41
1160.49	88.9541
1163.38	144.11
1166.27	38.2168
1169.17	41.7588
1172.06	27.5098
1174.95	33.4219
1177.85	11.5361
1180.74	2.41016
1183.63	36.7861
1186.52	2.49805
1189.42	44.5185
1192.31	51.4268
1195.2	35.957
1198.09	16.3965
1200.99	44.0352
1203.88	115.763
1206.77	20.8945
1209.66	74.1982
1212.56	27.3906
1215.45	100.838
1218.34	82.9014
1221.24	112.062
1224.13	139.79
1227.02	45.8369
1229.91	64.0606
1232.81	81.7344
1235.7	109.91
1238.59	95.4356
1241.48	11.3467
1244.38	80.1299
1247.27	111.032
1250.16	91.2158
1253.06	82.8096
1255.95	163.876
1258.84	28.1094
