Measurement: Raman, 780 nm, unoriented, Raman Data Processed
Mineral: Pseudolaueite
Rruff sample: R170035
Ideal chemistry: Mn^2+^Fe^3+^_2_(PO_4_)_2_(OH)_2_8H_2_O
Locality: Crooker Quarry, Newry, Maine, USA
Source: Van King
Description: Pale yellow-orange prismatic to thick tabular pseudohexagonal crystals, associated with albite
Raman shift (cm-1)	intensity
131.455	0
134.347	2.09796
137.24	8.32532
140.133	12.7594
143.025	16.3239
145.918	16.8378
148.811	14.438
151.704	11.9773
154.596	9.5235
157.489	3.95471
160.382	1.64862
163.274	1.24206
166.167	1.91605
169.06	0.599579
171.952	2.8277
174.845	3.38016
177.738	6.94827
180.631	11.7626
183.523	17.4662
186.416	21.726
189.309	18.9948
192.201	19.8127
195.094	16.268
197.987	14.7815
200.88	18.552
203.772	16.4954
206.665	13.0848
209.558	7.39026
212.45	7.35022
215.343	5.35568
218.236	5.38922
221.128	5.19067
224.021	5.18091
226.914	6.86699
229.806	10.2066
232.699	12.1951
235.592	16.7861
238.485	19.255
241.377	23.9007
244.27	29.7561
247.163	35.5453
250.055	36.024
252.948	39.3713
255.841	44.2988
258.733	47.4565
261.626	45.4134
264.519	42.1484
267.412	39.1668
270.304	35.4304
273.197	31.5379
276.09	26.6865
278.982	21.9751
281.875	15.811
284.768	11.6236
287.661	7.1636
290.553	5.99966
293.446	3.40909
296.339	2.56792
299.231	0.080475
302.124	1.18236
305.017	1.04599
307.909	0.526535
310.802	0.027893
313.695	2.59706
316.587	2.63115
319.48	6.98381
322.373	10.0991
325.266	14.0943
328.158	16.5114
331.051	21.9873
333.944	26.3696
336.837	28.3647
339.729	30.0184
342.622	31.3953
345.515	31.7076
348.407	30.4343
351.3	28.5083
354.193	26.343
357.085	24.7887
359.978	21.1968
362.871	22.4466
365.764	19.2063
368.656	17.0209
371.549	14.6383
374.442	11.7578
377.334	8.34966
380.227	3.06001
383.12	1.65866
386.012	0.225388
388.905	1.52895
391.798	0.945236
394.69	0.378448
397.583	1.86783
400.476	3.61888
403.369	4.45078
406.261	4.26534
409.154	5.65092
412.047	6.50456
414.939	5.90681
417.832	6.58919
420.725	7.73837
423.618	8.56618
426.51	8.87472
429.403	10.3484
432.296	12.6989
435.188	13.8789
438.081	16.5753
440.974	19.8343
443.866	20.5586
446.759	21.8629
449.652	20.8599
452.545	22.5574
455.437	22.5483
458.33	22.1395
461.223	22.2944
464.115	21.9403
467.008	20.3491
469.901	19.4457
472.793	15.0444
475.686	15.1191
478.579	10.5796
481.471	6.36218
484.364	4.56987
487.257	2.15912
490.15	1.91829
493.042	0.605164
495.935	0.072556
498.828	1.00101
501.72	1.29153
504.613	0.574997
507.506	0.229889
510.399	0.84436
513.291	1.60681
516.184	2.0793
519.077	3.20099
521.969	3.68741
524.862	3.0154
527.755	3.65129
530.647	2.30714
533.54	2.62605
536.433	3.99913
539.326	5.0123
542.218	6.68486
545.111	7.57637
548.004	7.61591
550.896	10.7501
553.789	10.9085
556.682	11.6003
559.574	10.3329
562.467	9.98203
565.36	10.0285
568.253	8.09156
571.145	7.27374
574.038	6.34071
576.931	6.58638
579.823	5.63531
582.716	4.80803
585.609	3.97958
588.501	3.36882
591.394	2.15663
594.287	1.70878
597.18	0.675415
600.072	1.04962
602.965	0.692703
605.858	0.924217
608.75	1.4101
611.643	0.642807
614.536	0.222672
617.428	0.719452
620.321	1.77483
623.214	1.01022
626.107	1.87215
628.999	0.80114
631.892	1.9365
634.785	1.36684
637.677	1.59078
640.57	1.27206
643.463	0.737381
646.356	2.39069
649.248	0.812492
652.141	1.48053
655.034	1.15662
657.926	1.3274
660.819	0.050201
663.712	1.00084
666.604	0.505318
669.497	0.205841
672.39	0.122543
675.283	0.617744
678.175	0.224213
681.068	0.475906
683.961	0.698097
686.853	0.592186
689.746	0.782288
692.639	0.558273
695.531	0.216698
698.424	0.68261
701.317	1.60996
704.21	1.08234
707.102	1.09331
709.995	0.868492
712.888	1.80582
715.78	2.03981
718.673	1.47917
721.566	2.0145
724.458	1.3529
727.351	1.34716
730.244	0.6427
733.136	0.47876
736.029	1.50505
738.922	0.920502
741.815	0.596626
744.707	1.58673
747.6	1.09407
750.493	0.230995
753.385	0.103256
756.278	0.191338
759.171	0.282074
762.063	0.784485
764.956	0.265152
767.849	0.358109
770.742	0.472778
773.634	0.436859
776.527	0.570709
779.42	0.586243
782.312	0.448555
785.205	0.852531
788.098	1.42988
790.99	1.22942
793.883	1.77596
796.776	1.5929
799.669	1.58875
802.561	2.44349
805.454	2.36111
808.347	2.12278
811.239	2.1955
814.132	3.00843
817.025	2.51863
819.918	2.52094
822.81	3.19241
825.703	3.13288
828.596	2.50525
831.488	2.84084
834.381	3.1475
837.274	4.60628
840.166	5.00432
843.059	4.45795
845.952	5.27787
848.845	6.01461
851.737	5.30493
854.63	5.64121
857.523	5.35806
860.415	6.03806
863.308	4.08363
866.201	5.0778
869.093	3.67719
871.986	3.28886
874.879	3.60059
877.771	2.97003
880.664	2.54015
883.557	1.61126
886.45	0.546539
889.342	1.06544
892.235	0.083488
895.128	0.374001
898.02	0.157036
900.913	0.538277
903.806	0.583847
906.698	1.03928
909.591	0.076859
912.484	0.548897
915.377	2.70918
918.269	3.42505
921.162	2.31432
924.055	2.40629
926.947	2.62716
929.84	2.16126
932.733	0.902054
935.625	3.05611
938.518	4.57652
941.411	6.42606
944.304	8.90626
947.196	11.8134
950.089	13.8698
952.982	15.2987
955.875	17.5187
958.767	18.9276
961.66	20.6784
964.553	23.5486
967.445	26.8805
970.338	32.082
973.231	38.4305
976.123	43.6737
979.016	42.3482
981.909	38.4892
984.802	31.7881
987.694	25.5653
990.587	22.8087
993.48	23.658
996.372	23.5847
999.265	23.6332
1002.16	20.1565
1005.05	18.8019
1007.94	13.8332
1010.84	11.1323
1013.73	7.99773
1016.62	5.85659
1019.51	3.33351
1022.41	3.58618
1025.3	3.59103
1028.19	3.70243
1031.09	3.52696
1033.98	6.99895
1036.87	8.0375
1039.76	9.17593
1042.66	11.0088
1045.55	8.75674
1048.44	5.75684
1051.33	3.67036
1054.23	2.2298
1057.12	1.307
1060.01	0.70253
1062.9	0.260406
1065.8	1.55942
1068.69	0.442513
1071.58	0.301445
1074.47	0.566711
1077.37	0.980835
1080.26	2.77725
1083.15	5.67078
1086.05	7.64637
1088.94	10.3755
1091.83	10.4844
1094.72	9.06677
1097.62	8.65082
1100.51	6.81643
1103.4	4.59744
1106.3	4.009
1109.19	2.77319
1112.08	2.58095
1114.97	1.87104
1117.87	2.54337
1120.76	1.0979
1123.65	1.0657
1126.54	0.133476
1129.44	1.36705
1132.33	1.09299
1135.22	1.64863
1138.12	2.41547
1141.01	1.44496
1143.9	1.56316
1146.79	0.398239
1149.68	0.786392
1152.58	0.291107
1155.47	0.318794
1158.36	0.127571
1161.26	0.460121
1164.15	0.515739
1167.04	0.349609
1169.93	0.865517
1172.83	0.439857
1175.72	0.636715
1178.61	1.44641
1181.51	1.60949
1184.4	1.82919
1187.29	2.46786
1190.18	2.43974
1193.08	2.24125
1195.97	2.2947
1198.86	2.46923
1201.75	2.31277
1204.65	2.90822
1207.54	3.81193
1210.43	2.96886
1213.33	2.73737
1216.22	2.45272
1219.11	4.93591
1222	2.61141
1224.9	2.03218
1227.79	2.00536
1230.68	0.949375
1233.57	0.797298
1236.47	1.94654
1239.36	1.82821
1242.25	1.37242
1245.14	1.16853
1248.04	0.965714
1250.93	0.900394
1253.82	1.52405
1256.71	1.09237
1259.61	0.852493
1262.5	0.971996
1265.39	0.756775
1268.29	1.14157
1271.18	0.519779
1274.07	0.174984
1276.96	0.468716
1279.86	0.109455
