Measurement: Raman, 532 nm, unoriented, Raman Data Processed
Mineral: Pseudomalachite
Rruff sample: R050264
Ideal chemistry: Cu^2+^_5_(P^5+^O_4_)_2_(OH)_4_
Locality: Cerro Morita, 27 km southwest of Agua Prieta, Sonora, Mexico
Source: Marcus Origlieri
Description: Blue powdery crust
Measured chemistry: (Cu_4.91_Al_0.04_[box]_0.03_Ca_0.02_)_Σ=5_((P_1.98_S_0.02_)_Σ=1_O_4_)_2_(OH)_4_ ; = light phase
Raman shift (cm-1)	intensity
193.499	0
196.392	5.6181
199.284	0.388306
202.177	1.79413
205.07	12.3115
207.962	30.2375
210.855	43.5066
213.748	47.6986
216.64	37.5153
219.533	20.1339
222.426	18.2563
225.319	4.16748
228.211	1.42786
231.104	0.43457
233.997	2.4209
236.889	3.45966
239.782	8.44629
242.675	15.0257
245.567	19.329
248.46	18.538
251.353	18.6504
254.245	27.4598
257.138	24.6567
260.031	24.8632
262.924	19.4846
265.816	12.0344
268.709	9.86182
271.602	5.9071
274.494	2.44946
277.387	1.27496
280.28	4.91272
283.173	2.953
286.065	7.89539
288.958	10.9794
291.851	15.6977
294.743	13.2188
297.636	16.6445
300.529	18.5001
303.421	15.2853
306.314	10.8636
309.207	9.72876
312.099	6.43506
314.992	4.16675
317.885	1.94348
320.778	1.84485
323.67	1.15564
326.563	3.81384
329.456	1.97534
332.348	6.17395
335.241	0.028931
338.134	3.71094
341.027	6.27869
343.919	11.1552
346.812	13.433
349.705	16.6401
352.597	20.5033
355.49	29.324
358.383	34.9216
361.276	46.86
364.168	60.0503
367.061	67.8879
369.954	53.0349
372.846	43.0447
375.739	25.4627
378.632	17.5723
381.524	10.3612
384.417	11.4493
387.31	4.93872
390.202	2.86047
393.095	2.38599
395.988	1.31775
398.881	6.37305
401.773	4.97082
404.666	0.276245
407.559	1.27832
410.451	10.5194
413.344	16.9569
416.237	18.9799
419.13	17.5768
422.022	21.13
424.915	23.8756
427.808	34.8468
430.7	49.0326
433.593	61.4932
436.486	76.1973
439.378	84.3224
442.271	93.9883
445.164	104.552
448.057	120.823
450.949	125.08
453.842	102.115
456.735	80.4537
459.627	70.2726
462.52	72.4624
465.413	74.6628
468.305	93.1941
471.198	121.839
474.091	157.204
476.983	194.25
479.876	209.303
482.769	185.809
485.662	132.075
488.554	93.5011
491.447	62.3188
494.34	40.8718
497.232	26.8657
500.125	22.4324
503.018	19.5592
505.911	15.0923
508.803	20.3875
511.696	24.7684
514.589	27.8844
517.481	23.3444
520.374	19.0064
523.267	17.5543
526.159	19.7051
529.052	16.5708
531.945	22.366
534.837	34.5587
537.73	33.975
540.623	21.2302
543.516	12.0789
546.408	6.08301
549.301	5.42786
552.194	0.286865
555.086	0.321777
557.979	2.26392
560.872	0.964722
563.764	0.370728
566.657	5.37769
569.55	0.12915
572.443	3.52258
575.335	2.91492
578.228	5.02637
581.121	11.4227
584.013	14.2876
586.906	21.8199
589.799	18.7827
592.692	23.7875
595.584	32.1256
598.477	42.1242
601.37	55.5935
604.262	70.538
607.155	84.3076
610.048	84.0977
612.94	69.1675
615.833	56.5989
618.726	47.1399
621.619	34.3884
624.511	24.6859
627.404	16.0926
630.297	11.4679
633.189	9.31555
636.082	9.20337
638.975	5.84924
641.867	2.89111
644.76	2.55017
647.653	0.131958
650.545	2.58569
653.438	3.01746
656.331	0.081665
659.224	2.86865
662.116	1.87439
665.009	0.93457
667.902	1.76917
670.794	0.557739
673.687	2.00403
676.58	3.20154
679.472	1.52063
682.365	4.91345
685.258	2.20801
688.151	2.16455
691.043	5.75696
693.936	3.8529
696.829	3.62573
699.721	1.901
702.614	4.41223
705.507	5.38635
708.399	5.40527
711.292	1.54504
714.185	0.634033
717.078	1.34424
719.97	2.27258
722.863	4.28381
725.756	6.07336
728.648	5.17651
731.541	2.88171
734.434	6.19153
737.327	10.1335
740.219	13.9624
743.112	9.77515
746.005	20.3811
748.897	19.2749
751.79	12.8354
754.683	4.52185
757.575	1.79199
760.468	1.46484
763.361	4.57873
766.254	4.21545
769.146	0.433228
772.039	3.70154
774.932	1.78308
777.824	0.975098
780.717	1.99951
783.61	0.688965
786.502	7.93494
789.395	10.6752
792.288	22.8563
795.181	26.4364
798.073	29.0341
800.966	33.3391
803.859	28.604
806.751	27.4309
809.644	20.2163
812.537	16.0166
815.429	9.31812
818.322	9.33166
821.215	9.30347
824.107	11.3324
827	7.58508
829.893	3.59863
832.786	1.98706
835.678	3.92627
838.571	3.84778
841.464	5.45801
844.356	1.97327
847.249	3.74426
850.142	1.58923
853.034	4.44153
855.927	7.63086
858.82	14.3403
861.713	24.444
864.605	28.016
867.498	27.8279
870.391	28.0421
873.283	30.2867
876.176	31.8824
879.069	22.5062
881.962	18.1
884.854	12.8533
887.747	12.478
890.64	7.39062
893.532	7.10376
896.425	7.06067
899.318	5.97974
902.21	7.44836
905.103	3.19226
907.996	0.204102
910.889	1.09314
913.781	0.768555
916.674	1.63171
919.567	0.074219
922.459	1.74597
925.352	3.03979
928.245	3.4176
931.137	2.60583
934.03	6.54028
936.923	7.36768
939.816	10.9742
942.708	4.87378
945.601	13.9547
948.494	11.6095
951.386	9.26819
954.279	15.3044
957.172	25.9481
960.064	29.7831
962.957	43.3807
965.85	52.6697
968.742	60.6984
971.635	64.0134
974.528	57.9261
977.421	51.9066
980.313	40.7801
983.206	35.8173
986.099	37.0303
988.991	41.2817
991.884	40.7069
994.777	46.2852
997.669	54.2289
1000.56	55.3127
1003.46	40.5211
1006.35	34.2369
1009.24	22.4084
1012.13	11.1008
1015.03	9.90625
1017.92	6.31982
1020.81	1.74084
1023.7	1.35449
1026.6	4.03125
1029.49	0.887573
1032.38	4.33728
1035.28	5.53894
1038.17	0.283936
1041.06	0.550537
1043.95	10.5946
1046.85	12.9727
1049.74	15.1648
1052.63	19.2479
1055.52	20.9329
1058.42	19.6242
1061.31	15.1599
1064.2	14.333
1067.09	14.5049
1069.99	19.7255
1072.88	20.9675
1075.77	38.3545
1078.66	51.7833
1081.56	76.1047
1084.45	95.9208
1087.34	86.8782
1090.24	63.2142
1093.13	37.8783
1096.02	28.0444
1098.91	17.3806
1101.81	14.616
1104.7	11.0104
1107.59	11.2476
1110.48	12.6003
1113.38	13.2223
1116.27	9.35547
1119.16	11.3395
1122.06	6.495
1124.95	5.76514
1127.84	5.8783
1130.73	3.94031
1133.63	4.59558
1136.52	3.36841
1139.41	2.23035
1142.3	1.25818
1145.2	3.48633
1148.09	1.47876
1150.98	0.494751
1153.88	4.82251
1156.77	1.96314
1159.66	0.162964
1162.55	2.89465
1165.45	0.53125
1168.34	2.41418
1171.23	5.95752
1174.12	4.03821
1177.02	6.93994
1179.91	8.73962
1182.8	9.82239
1185.69	6.95764
1188.59	2.41602
1191.48	6.09802
1194.37	4.15259
1197.27	7.1947
1200.16	9.38574
1203.05	5.10193
1205.94	5.65405
1208.84	9.07019
1211.73	9.29663
1214.62	3.29443
1217.52	3.81543
1220.41	0.010986
1223.3	6.37036
1226.19	8.18518
1229.09	6.00281
1231.98	4.67664
1234.87	1.84912
1237.76	3.3512
1240.66	0.095093
1243.55	5.59656
1246.44	1.63294
1249.33	5.64661
1252.23	5.61084
1255.12	1.18958
1258.01	2.47864
1260.9	9.2262
1263.8	8.74829
1266.69	3.22009
1269.58	7.12134
1272.48	4.68054
1275.37	4.78247
1278.26	5.9469
1281.15	5.88757
1284.05	4.16516
1286.94	2.64258
1289.83	0.604736
1292.72	7.10278
1295.62	2.13696
1298.51	1.38855
1301.4	0.466309
