Measurement: Raman, 532 nm, unoriented, Raman Data Processed
Mineral: Pseudoboleite
Rruff sample: R050162
Ideal chemistry: Pb^2+^_31_Cu^2+^_24_Cl_62_(OH)_48_
Locality: Margarita mine, Sierra Gorda, Antofagasta, Chile
Source: Jim McGlasson
Description: Blue crust, associated with yellow penfieldite, R050163
Raman shift (cm-1)	intensity
123.637	0
127.012	19.1542
130.387	122.506
133.762	208.235
137.137	235.237
140.511	260.824
143.886	302.98
147.261	345.638
150.636	356.665
154.011	341.893
157.386	313.544
160.76	284.551
164.135	261.76
167.51	226.584
170.885	178.573
174.26	128.474
177.634	89.879
181.009	62.467
184.384	38.601
187.759	17.4142
191.134	2.40945
194.508	4.45032
197.883	9.04581
201.258	7.81693
204.633	3.63474
208.008	2.37326
211.382	9.29022
214.757	21.1849
218.132	30.3489
221.507	37.2216
224.882	41.1499
228.257	43.8999
231.631	43.0728
235.006	42.3143
238.381	42.1504
241.756	43.4247
245.131	44.2664
248.506	46.4383
251.88	46.1219
255.255	43.2437
258.63	35.6179
262.005	23.8506
265.38	12.6115
268.754	5.72877
272.129	1.97266
275.504	1.11184
278.879	0.191353
282.254	2.48943
285.628	5.00561
289.003	7.31989
292.378	11.0378
295.753	14.718
299.128	18.128
302.503	18.8964
305.877	15.8005
309.252	10.0485
312.627	5.85987
316.002	2.54649
319.377	1.66936
322.752	1.89182
326.126	1.24604
329.501	2.56002
332.876	4.023
336.251	5.96368
339.625	9.97749
343	11.4252
346.375	14.8232
349.75	18.4102
353.125	21.103
356.5	24.828
359.875	27.4177
363.249	27.1368
366.624	24.4098
369.999	19.6232
373.374	15.2868
376.748	10.8863
380.123	7.79078
383.498	4.9001
386.873	3.13648
390.248	1.26065
393.623	0.023407
396.997	0.606014
400.372	1.18653
403.747	1.31553
407.122	0.327927
410.497	0.127853
413.872	0.083687
417.246	0.227688
420.621	0.625961
423.996	1.15594
427.371	2.3641
430.746	4.11935
434.12	6.29858
437.495	9.38598
440.87	13.3218
444.245	18.5488
447.62	23.7747
450.995	29.1015
454.369	33.3168
457.744	34.0577
461.119	30.617
464.494	24.3227
467.869	18.6047
471.243	15.5262
474.618	13.9984
477.993	14.2232
481.368	14.3199
484.743	14.4804
488.118	14.7319
491.492	14.6706
494.867	14.3997
498.242	14.0333
501.617	13.5671
504.991	12.458
508.366	11.1699
511.741	9.80958
515.116	8.07334
518.491	6.42493
521.866	5.20613
525.24	4.07145
528.615	3.17376
531.99	2.4405
535.365	1.62127
538.74	1.19746
542.115	0.885517
545.489	0.702942
548.864	0.579443
552.239	0.351301
555.614	0.067421
558.989	0.085518
562.363	0.419168
565.738	0.156183
569.113	0.040054
572.488	0.109165
575.863	0.145786
579.237	0.04986
582.612	0.021938
585.987	0.066866
589.362	0.070486
592.737	0.149517
596.112	0.101416
599.486	0.040808
602.861	0.027143
606.236	0.049757
609.611	0.20253
612.986	0.243979
616.361	0.027109
619.735	0.081261
623.11	0.061005
626.485	0.130703
629.86	0.016964
633.235	0.295525
636.609	0.27927
639.984	0.480639
643.359	0.728981
646.734	1.09458
650.109	1.35499
653.484	1.99412
656.858	2.9013
660.233	3.62627
663.608	3.91558
666.983	4.49582
670.357	5.37186
673.732	6.12426
677.107	6.76747
680.482	7.53416
683.857	7.7154
687.232	8.30149
690.606	8.40361
693.981	8.15151
697.356	8.34357
700.731	8.54583
704.106	8.36942
707.481	8.06115
710.855	7.69869
714.23	7.48087
717.605	6.96326
720.98	6.40977
724.355	5.77216
727.729	5.47116
731.104	5.19132
734.479	4.22263
737.854	4.43943
741.229	4.12494
744.604	3.71796
747.978	3.20192
751.353	2.97099
754.728	2.65729
758.103	2.3465
761.477	1.80764
764.852	1.06304
768.227	0.843874
771.602	0.410673
774.977	0.274982
778.352	0.076923
781.726	0.020929
785.101	0.24391
788.476	0.169262
791.851	0.010597
795.226	0.187153
798.601	0.237995
801.975	0.350189
805.35	0.646696
808.725	0.831173
812.1	1.27034
815.475	1.42058
818.849	1.43971
822.224	1.52437
825.599	1.34304
828.974	1.47096
832.349	1.02734
835.723	0.981964
839.098	0.783573
842.473	0.795702
845.848	0.555941
849.223	0.58135
852.598	0.596939
855.972	0.540613
859.347	0.231655
862.722	0.199528
866.097	0.414103
869.472	0.270531
872.846	0.346514
876.221	0.641869
879.596	0.165714
882.971	0.100492
886.346	0.142509
889.721	0.046715
893.095	0.192352
896.47	0.020327
899.845	0.0931
903.22	0.310465
906.595	0.433502
909.97	0.565434
913.344	0.82927
916.719	1.26528
920.094	1.10421
923.469	1.48191
926.844	0.887144
930.218	1.01174
933.593	0.856343
936.968	0.470226
940.343	0.520955
943.718	0.253922
947.092	0.226851
950.467	0.243794
953.842	0.183378
957.217	0.090332
960.592	0.042661
963.966	0.20541
967.341	0.20303
970.716	0.391302
974.091	0.473633
977.466	0.869941
980.841	0.611546
984.215	0.926056
987.59	0.89027
990.965	0.884837
994.34	0.85639
997.715	1.18382
1001.09	0.85199
1004.46	0.891714
1007.84	1.0399
1011.21	1.07233
1014.59	0.895209
1017.96	0.799512
1021.34	0.714459
1024.71	0.602722
1028.09	0.754371
1031.46	0.83717
1034.84	0.652934
1038.21	1.08787
1041.59	1.30757
1044.96	1.89894
1048.34	1.59031
1051.71	0.917157
1055.09	0.432315
1058.46	0.459436
1061.84	0.326556
1065.21	0.082738
1068.59	0.000412
1071.96	0.174467
1075.34	0.051445
1078.71	0.001431
1082.09	0.079391
1085.46	0.076941
1088.84	0.302131
1092.21	0.135965
1095.58	0.186811
1098.96	0.145674
1102.33	0.07482
1105.71	0.032929
1109.08	0.171343
1112.46	0.2886
1115.83	0.25747
1119.21	0.039516
1122.58	0.256225
1125.96	0.304623
1129.33	0.172882
1132.71	0.26899
1136.08	0.105591
1139.46	0.05847
1142.83	0.125828
1146.21	0.025182
1149.58	0.065855
1152.96	0.164783
1156.33	0.247965
1159.71	0.204877
1163.08	0.105288
1166.45	0.164599
1169.83	0.038132
1173.2	0.193486
1176.58	0.100793
1179.95	0.12519
1183.33	0.043101
1186.7	0.17329
1190.08	0.090757
1193.45	0.063818
1196.83	0.068688
1200.2	0.261753
1203.58	0.134337
1206.95	0.08263
1210.33	0.318174
1213.7	0.154934
1217.08	0.179083
1220.45	0.111533
1223.83	0.166039
1227.2	0.258729
1230.58	0.144911
1233.95	0.388967
1237.33	0.006082
1240.7	0.234438
1244.08	0.05788
1247.45	0.102479
1250.83	0.117604
1254.2	0.23233
1257.58	0.206069
1260.95	0.009113
1264.33	0.223375
1267.7	0.16794
1271.08	0.077387
1274.45	0.291714
1277.82	0.179359
1281.2	0.204366
1284.57	0.218829
1287.95	0.01901
1291.32	0.183372
1294.7	0.148297
1298.07	0.086719
1301.45	0.043862
1304.82	0.158107
