Measurement: Raman, 780 nm, unoriented, Raman Data Processed
Mineral: Pseudoboleite
Rruff sample: R050162
Ideal chemistry: Pb^2+^_31_Cu^2+^_24_Cl_62_(OH)_48_
Locality: Margarita mine, Sierra Gorda, Antofagasta, Chile
Source: Jim McGlasson
Description: Blue crust, associated with yellow penfieldite, R050163
Raman shift (cm-1)	intensity
124.322	0
127.697	0.495762
131.072	1.2696
134.447	3.26818
137.821	3.9486
141.196	5.33371
144.571	6.44417
147.946	6.88323
151.321	7.12954
154.696	6.6927
158.07	7.06307
161.445	6.63797
164.82	5.74132
168.195	4.63142
171.57	3.33248
174.945	2.2232
178.319	1.65173
181.694	0.734474
185.069	0.155342
188.444	0.451677
191.819	0.33406
195.193	0.206248
198.568	0.089959
201.943	0.270112
205.318	0.536361
208.693	1.07956
212.067	1.35485
215.442	2.1396
218.817	2.2448
222.192	2.58541
225.567	2.50911
228.942	2.61912
232.316	2.86291
235.691	2.78059
239.066	2.76422
242.441	2.64957
245.816	2.51498
249.19	2.3617
252.565	2.18873
255.94	1.71111
259.315	1.48037
262.69	1.1269
266.065	0.754346
269.439	0.595305
272.814	0.482919
276.189	0.461583
279.564	0.380091
282.939	0.314085
286.313	0.351165
289.688	0.431416
293.063	0.417063
296.438	0.419894
299.813	0.410294
303.188	0.478935
306.562	0.282126
309.937	0.225734
313.312	0.164626
316.687	0.073461
320.062	0.036292
323.436	0.067077
326.811	0.08479
330.186	0.125793
333.561	0.169569
336.936	0.139215
340.31	0.198224
343.685	0.326328
347.06	0.38669
350.435	0.539952
353.81	0.684449
357.185	0.761236
360.559	0.657294
363.934	0.747117
367.309	0.507432
370.684	0.43432
374.059	0.447243
377.433	0.256776
380.808	0.140306
384.183	0.066936
387.558	0.049877
390.933	0.020273
394.308	0.035365
397.682	0.054499
401.057	0.040428
404.432	0.081379
407.807	0.017408
411.182	0.020845
414.557	0.045831
417.931	0.039185
421.306	0.036563
424.681	0.024944
428.056	0.145953
431.43	0.248795
434.805	0.167467
438.18	0.38536
441.555	0.468874
444.93	0.67936
448.305	0.745186
451.679	0.834602
455.054	0.93699
458.429	0.854177
461.804	0.68116
465.179	0.475447
468.553	0.389056
471.928	0.36388
475.303	0.308971
478.678	0.399571
482.053	0.324258
485.428	0.299173
488.802	0.275088
492.177	0.288087
495.552	0.177432
498.927	0.239653
502.302	0.177204
505.676	0.224751
509.051	0.25348
512.426	0.167136
515.801	0.289047
519.176	0.104697
522.551	0.016399
525.925	0.06794
529.3	0.110828
532.675	0.064321
536.05	0.091986
539.425	0.116744
542.799	0.035698
546.174	0.067438
549.549	0.046447
552.924	0.063303
556.299	0.063296
559.674	0.058306
563.048	0.03784
566.423	0.013997
569.798	0.016863
573.173	0.093054
576.548	0.126925
579.923	0.008582
583.297	0.114697
586.672	0.059524
590.047	0.147416
593.422	0.134987
596.797	0.109635
600.171	0.091099
603.546	0.107378
606.921	0.068459
610.296	0.095408
613.671	0.149672
617.045	0.067804
620.42	0.085129
623.795	0.005932
627.17	0.005261
630.545	0.080587
633.919	0.010779
637.294	0.086989
640.669	0.037011
644.044	0.047011
647.419	0.045525
650.794	0.124037
654.168	0.000576
657.543	0.062564
660.918	0.074694
664.293	0.053478
667.668	0.056847
671.043	0.16898
674.417	0.138243
677.792	0.079227
681.167	0.203441
684.542	0.220498
687.917	0.238568
691.291	0.17319
694.666	0.22091
698.041	0.139256
701.416	0.145103
704.791	0.25166
708.165	0.094112
711.54	0.133747
714.915	0.106941
718.29	0.094204
721.665	0.098609
725.04	0.097767
728.414	0.149553
731.789	0.007361
735.164	0.156684
738.539	0.092512
741.914	0.082752
745.288	0.077717
748.663	0.085598
752.038	0.105714
755.413	0.046757
758.788	0.011906
762.163	0.062087
765.537	0.048494
768.912	0.037724
772.287	0.018318
775.662	0.056798
779.037	0.03657
782.411	0.061384
785.786	0.047953
789.161	0.022678
792.536	0.074075
795.911	0.068991
799.285	0.067981
802.66	0.024236
806.035	0.220496
809.41	0.060877
812.785	0.087242
816.16	0.125724
819.534	0.147372
822.909	0.173108
826.284	0.290141
829.659	0.227915
833.034	0.251766
836.409	0.154035
839.783	0.292214
843.158	0.165936
846.533	0.116052
849.908	0.253706
853.283	0.150476
856.657	0.157561
860.032	0.164184
863.407	0.104027
866.782	0.106597
870.157	0.12674
873.532	0.160088
876.906	0.197682
880.281	0.170559
883.656	0.091808
887.031	0.117653
890.406	0.056318
893.78	0.112742
897.155	0.044026
900.53	0.078863
903.905	0.048334
907.28	0.025883
910.654	0.034073
914.029	0.110105
917.404	0.118455
920.779	0.013813
924.154	0.017512
927.529	0.003604
930.903	0.058047
934.278	0.123318
937.653	0.011051
941.028	0.012174
944.403	0.021646
947.777	0.00085
951.152	0.072356
954.527	0.002524
957.902	0.008098
961.277	0.00673
964.652	0.117613
968.026	0.101804
971.401	0.078208
974.776	0.032879
978.151	0.078282
981.526	0.080331
984.9	0.032696
988.275	0.079988
991.65	0.103631
995.025	0.067047
998.4	0.036505
1001.77	0.012787
1005.15	0.040882
1008.52	0.080311
1011.9	0.119888
1015.27	0.055788
1018.65	0.124144
1022.02	0.058653
1025.4	0.054134
1028.77	0.071127
1032.15	0.090922
1035.52	0.110631
1038.9	0.123563
1042.27	0.180508
1045.65	0.202477
1049.02	0.147113
1052.4	0.069009
1055.77	0.108725
1059.15	0.147064
1062.52	0.09103
1065.9	0.032668
1069.27	0.058811
1072.65	0.097174
1076.02	0.164883
1079.39	0.034456
1082.77	0.075742
1086.14	0.10149
1089.52	0.02927
1092.89	0.131982
1096.27	0.038507
1099.64	0.080616
1103.02	0.03525
1106.39	0.030611
1109.77	0.122917
1113.14	0.066775
1116.52	0.094571
1119.89	0.008061
1123.27	0.080232
1126.64	0.129823
1130.02	0.106562
1133.39	0.083264
1136.77	0.168874
1140.14	0.014332
1143.52	0.074124
1146.89	0.061808
1150.27	0.07222
1153.64	0.109955
1157.02	0.19443
1160.39	0.122541
1163.77	0.023287
1167.14	0.057498
1170.52	0.093192
1173.89	0.158916
1177.27	0.127683
1180.64	0.114823
1184.02	0.150583
1187.39	0.028726
1190.76	0.054349
1194.14	0.109242
1197.51	0.115339
1200.89	0.017851
1204.26	0.143529
1207.64	0.159755
1211.01	0.074423
1214.39	0.071704
1217.76	0.095113
1221.14	0.039446
1224.51	0.093778
1227.89	0.102124
1231.26	0.022281
1234.64	0.046275
1238.01	0.105152
1241.39	0.032234
1244.76	0.041631
1248.14	0.048237
1251.51	0.0601055
1254.89	0.0999341
1258.26	0.0420762
1261.63	0.008309
1265.01	0.08853
1268.38	0.038148
1271.76	0.018123
1275.13	0.030989
1278.51	0.057148
1281.88	0.046262
1285.26	0.000651
