Measurement: Raman, 532 nm, unoriented, Raman Data Processed
Mineral: Pseudolaueite
Rruff sample: R170035
Ideal chemistry: Mn^2+^Fe^3+^_2_(PO_4_)_2_(OH)_2_8H_2_O
Locality: Crooker Quarry, Newry, Maine, USA
Source: Van King
Description: Pale yellow-orange prismatic to thick tabular pseudohexagonal crystals, associated with albite
Raman shift (cm-1)	intensity
114.171	0
117.546	3.32181
120.921	0.517273
124.296	16.5389
127.67	17.2043
131.045	31.7779
134.42	34.095
137.795	34.545
141.17	36.4708
144.544	26.8267
147.919	25.0177
151.294	18.1894
154.669	15.8503
158.044	14.3903
161.418	17.2531
164.793	18.1532
168.168	19.7109
171.543	28.0892
174.918	30.6105
178.293	28.8836
181.667	32.6079
185.042	41.3203
188.417	48.3792
191.792	39.2119
195.167	27.9872
198.542	20.99
201.916	17.2607
205.291	11.9191
208.666	6.71338
212.041	3.72946
215.416	3.12854
218.79	0.69928
222.165	2.38608
225.54	7.02557
228.915	10.0353
232.29	14.3235
235.664	19.3055
239.039	27.4607
242.414	43.109
245.789	60.8283
249.164	73.0337
252.538	81.8659
255.913	98.2845
259.288	108.233
262.663	98.2591
266.038	73.644
269.413	59.5889
272.787	50.4688
276.162	40.2086
279.537	26.2573
282.912	14.7524
286.287	10.196
289.661	3.70236
293.036	2.10165
296.411	0.276062
299.786	0.684937
303.161	1.26471
306.536	1.19339
309.91	0.109222
313.285	2.88022
316.66	7.164
320.035	13.6289
323.41	20.903
326.784	32.2617
330.159	43.0008
333.534	55.6574
336.909	61.6119
340.284	60.9468
343.659	63.0908
347.033	56.0368
350.408	49.0031
353.783	41.023
357.158	31.7842
360.533	22.7609
363.908	14.9267
367.282	14.2559
370.657	11.2419
374.032	4.04895
377.407	2.6543
380.782	0.187897
384.156	0.653687
387.531	0.22348
390.906	2.82758
394.281	9.36987
397.656	16.4236
401.031	19.4997
404.405	22.3615
407.78	20.222
411.155	14.7278
414.53	9.901
417.905	3.34363
421.279	1.03296
424.654	0.500458
428.029	0.992676
431.404	0.797363
434.779	0.627136
438.154	0.64035
441.528	1.30701
444.903	4.49216
448.278	5.24789
451.653	8.33441
455.028	12.9143
458.402	19.0172
461.777	24.8444
465.152	29.3091
468.527	31.249
471.902	29.5847
475.276	23.8196
478.651	17.5518
482.026	14.7728
485.401	11.2307
488.776	8.53903
492.151	7.58868
495.525	10.2436
498.9	13.2272
502.275	16.5116
505.65	21.3643
509.025	29.4721
512.399	47.7169
515.774	40.8723
519.149	45.9893
522.524	47.4383
525.899	42.3189
529.274	31.7441
532.648	20.7657
536.023	15.1773
539.398	10.493
542.773	10.0833
546.148	6.47562
549.523	8.37601
552.897	9.71741
556.272	8.09067
559.647	9.02902
563.022	8.68665
566.396	6.29959
569.771	5.40256
573.146	11.7914
576.521	5.60175
579.896	5.87717
583.271	6.99707
586.645	4.96957
590.02	1.25894
593.395	0.387512
596.77	0.664215
600.145	2.02112
603.519	0.138977
606.894	0.886353
610.269	0.910309
613.644	2.42084
617.019	1.88992
620.394	3.69931
623.768	3.30688
627.143	5.67346
630.518	3.81711
633.893	6.0643
637.268	5.91235
640.643	4.97977
644.017	3.79794
647.392	4.59555
650.767	4.95499
654.142	4.65399
657.517	4.29807
660.891	2.96408
664.266	0.938629
667.641	2.62704
671.016	4.87424
674.391	1.84836
677.765	0.381409
681.14	1.26108
684.515	2.20215
687.89	0.487579
691.265	0.314392
694.64	0.623413
698.014	0.394043
701.389	2.23431
704.764	0.552948
708.139	2.49271
711.514	0.670746
714.889	1.01822
718.263	0.734161
721.638	0.675842
725.013	0.39917
728.388	1.19345
731.763	0.754059
735.137	1.62259
738.512	2.71677
741.887	1.47345
745.262	0.459473
748.637	0.097992
752.011	1.36234
755.386	0.179382
758.761	0.694244
762.136	1.21762
765.511	0.559235
768.886	0.482483
772.26	0.581177
775.635	1.12283
779.01	1.67499
782.385	1.5997
785.76	2.07239
789.135	2.23212
792.509	1.58411
795.884	4.6817
799.259	5.5928
802.634	2.41669
806.009	3.7124
809.383	4.17456
812.758	5.75568
816.133	4.75214
819.508	6.77417
822.883	6.07477
826.257	5.4342
829.632	7.15967
833.007	9.91718
836.382	8.03909
839.757	9.45627
843.132	9.19629
846.506	8.7457
849.881	8.16986
853.256	10.1943
856.631	10.0226
860.006	8.00488
863.38	9.0965
866.755	9.78458
870.13	8.87042
873.505	8.50293
876.88	7.83588
880.255	7.27768
883.629	5.75949
887.004	6.26605
890.379	4.31555
893.754	3.35901
897.129	2.74536
900.504	0.538177
903.878	2.03223
907.253	1.12814
910.628	0.797638
914.003	0.339691
917.378	0.079132
920.752	1.76587
924.127	2.48908
927.502	2.41202
930.877	3.25589
934.252	0.11026
937.626	0.863434
941.001	2.53818
944.376	2.49359
947.751	3.23758
951.126	6.33939
954.5	10.5912
957.875	14.1112
961.25	22.4859
964.625	36.1788
968	52.5729
971.375	77.7122
974.75	102.925
978.124	119.02
981.499	104.722
984.874	78.8911
988.249	50.9023
991.624	36.4172
994.998	29.8618
998.373	25.0754
1001.75	25.3013
1005.12	27.0024
1008.5	28.4085
1011.87	23.5633
1015.25	16.2314
1018.62	9.63089
1022	8.5
1025.37	10.4747
1028.75	12.6782
1032.12	13.784
1035.5	15.1926
1038.87	14.5791
1042.25	13.4527
1045.62	11.5698
1048.99	10.4884
1052.37	8.48114
1055.74	9.33563
1059.12	7.80493
1062.49	5.09674
1065.87	3.89362
1069.24	5.7937
1072.62	11.598
1075.99	17.2856
1079.37	29.3055
1082.74	49.5557
1086.12	71.7896
1089.49	91.5293
1092.87	91.2817
1096.24	76.0623
1099.62	55.9268
1102.99	36.8121
1106.37	19.4302
1109.74	10.6212
1113.12	5.78088
1116.49	2.54044
1119.87	3.26825
1123.24	0.239685
1126.62	1.87268
1129.99	1.38916
1133.37	0.038818
1136.74	0.850708
1140.12	0.28595
1143.49	0.227844
1146.87	0.9758
1150.24	0.156036
1153.62	0.756165
1156.99	1.58185
1160.36	1.5899
1163.74	1.02896
1167.11	0.954376
1170.49	1.5199
1173.86	3.29474
1177.24	4.61371
1180.61	4.19882
1183.99	4.03906
1187.36	3.24875
1190.74	6.7887
1194.11	7.28778
1197.49	5.66742
1200.86	6.75647
1204.24	6.70532
1207.61	5.63825
1210.99	5.86319
1214.36	6.84543
1217.74	5.09103
1221.11	6.3494
1224.49	5.9986
1227.86	2.02502
1231.24	3.16733
1234.61	2.52866
1237.98	3.367
1241.36	3.62643
1244.73	9.14401
1248.11	6.54852
1251.48	4.9162
1254.86	5.03775
1258.23	4.05109
1261.61	3.49512
1264.98	2.40753
1268.36	3.16776
1271.73	2.69998
1275.11	1.91751
1278.48	1.51425
1281.86	1.85071
1285.23	2.54742
1288.61	1.83176
1291.98	2.29947
1295.36	0.381805
1298.73	0.113922
