Measurement: Raman, 785 nm, unoriented, Raman Data Processed
Mineral: Pseudomalachite
Rruff sample: R040175
Ideal chemistry: Cu^2+^_5_(P^5+^O_4_)_2_(OH)_4_
Locality: West Bogan mine, Tottenham, Australia
Source: University of Arizona Mineral Museum
Description: Green massive in a botryoidal shape
Measured chemistry: Cu_5.00_(P_1.00_O_4_)_2_(OH_.98_F_.02_)_4_
Raman shift (cm-1)	intensity
166.338	0
169.231	10.7592
172.124	29.3618
175.017	11.1315
177.909	58.1826
180.802	58.6495
183.695	91.6935
186.587	92.7963
189.48	77.5626
192.373	40.2189
195.265	45.9526
198.158	80.3474
201.051	80.2573
203.944	102.18
206.836	119.237
209.729	115.082
212.622	50.1277
215.514	71.9152
218.407	21.4297
221.3	28.8418
224.192	48.7394
227.085	33.9335
229.978	10.3409
232.87	6.17615
235.763	45.9166
238.656	56.4791
241.549	72.965
244.441	100.526
247.334	112.108
250.227	127.81
253.119	140.295
256.012	122.142
258.905	108.337
261.798	85.3821
264.69	99.5507
267.583	72.0002
270.476	68.7286
273.368	57.3169
276.261	16.8408
279.154	82.5929
282.046	38.3225
284.939	50.1093
287.832	18.7492
290.724	26.0913
293.617	2.56885
296.51	19.5043
299.403	12.1062
302.295	25.7541
305.188	31.5051
308.081	9.28833
310.973	13.0476
313.866	44.4723
316.759	4.06604
319.651	19.5237
322.544	16.0994
325.437	32.7266
328.33	20.9594
331.222	24.9375
334.115	37.8418
337.008	22.1854
339.9	53.212
342.793	105.869
345.686	142.934
348.579	130.585
351.471	213.506
354.364	210.675
357.257	256.432
360.149	310.02
363.042	304.853
365.935	255.737
368.827	172.282
371.72	123.397
374.613	108.386
377.505	81.019
380.398	47.6901
383.291	10.9197
386.184	25.4418
389.076	23.5132
391.969	0.373169
394.862	9.17041
397.754	11.562
400.647	2.84876
403.54	33.0707
406.433	0.79126
409.325	34.9853
412.218	29.5012
415.111	52.0725
418.003	107
420.896	116.713
423.789	168.174
426.681	156.358
429.574	197.966
432.467	256.365
435.36	252.587
438.252	256.863
441.145	289.588
444.038	268.667
446.93	299.172
449.823	220.695
452.716	193.143
455.608	148.69
458.501	176.245
461.394	173.374
464.286	187.718
467.179	201.24
470.072	275.49
472.965	287.375
475.857	299.858
478.75	276.883
481.643	238.841
484.535	198.294
487.428	167.28
490.321	96.1818
493.214	104.018
496.106	59.846
498.999	77.7071
501.892	55.1366
504.784	70.7924
507.677	53.8523
510.57	48.9969
513.462	26.1625
516.355	31.9302
519.248	29.7856
522.14	50.2521
525.033	79.1539
527.926	41.8838
530.819	56.3153
533.711	43.0344
536.604	39.7195
539.497	42.9464
542.389	48.1337
545.282	12.9334
548.175	35.8091
551.067	15.057
553.96	8.90771
556.853	41.3527
559.745	15.7814
562.638	20.4833
565.531	64.261
568.424	35.7711
571.316	36.4314
574.209	37.9137
577.102	39.715
579.994	73.0186
582.887	67.4203
585.78	88.3544
588.673	106.553
591.565	111.021
594.458	155.272
597.351	153.285
600.243	222.367
603.136	247.955
606.029	226.26
608.921	164.445
611.814	146.99
614.707	106.517
617.6	77.7135
620.492	68.7625
623.385	45.7205
626.278	54.2612
629.17	60.8563
632.063	56.3348
634.956	4.20007
637.848	28.1583
640.741	44.1299
643.634	28.9343
646.527	1.55505
649.419	8.19409
652.312	27.7277
655.205	19.0958
658.097	7.4928
660.99	34.1532
663.883	35.3336
666.775	36.2306
669.668	10.5635
672.561	48.4763
675.454	14.3771
678.346	33.4442
681.239	25.8733
684.132	3.45459
687.024	12.6459
689.917	17.7947
692.81	7.70667
695.702	9.77161
698.595	63.1897
701.488	11.4475
704.381	13.9199
707.273	41.2227
710.166	25.9367
713.059	52.3546
715.951	10.529
718.844	5.58447
721.737	11.1924
724.63	19.6928
727.522	22.9302
730.415	14.3805
733.308	39.1029
736.2	50.6493
739.093	14.7695
741.986	61.2592
744.878	28.7554
747.771	69.9194
750.664	33.9498
753.557	30.7828
756.449	23.4867
759.342	36.3897
762.235	8.5802
765.127	24.2897
768.02	22.3686
770.913	47.2765
773.805	10.7315
776.698	14.0492
779.591	5.54053
782.484	11.1512
785.376	48.3887
788.269	38.5675
791.162	22.7428
794.054	30.1868
796.947	37.3645
799.84	54.8677
802.732	32.0106
805.625	48.0903
808.518	14.907
811.41	1.35779
814.303	1.4397
817.196	30.4902
820.089	35.0035
822.981	27.4949
825.874	26.3966
828.767	34.1179
831.659	41.0789
834.552	13.225
837.445	31.1949
840.337	7.40186
843.23	10.2406
846.123	42.5507
849.016	43.2843
851.908	31.8418
854.801	25.0792
857.694	30.8099
860.586	27.8478
863.479	52.8861
866.372	41.0719
869.264	64.6355
872.157	35.4064
875.05	27.0205
877.943	43.158
880.835	20.7545
883.728	20.9839
886.621	9.15906
889.513	34.936
892.406	40.6892
895.299	39.7992
898.192	29.9573
901.084	8.22559
903.977	37.9746
906.87	31.1062
909.762	15.0598
912.655	18.3783
915.548	50.2466
918.44	14.9526
921.333	8.4978
924.226	26.767
927.119	31.3154
930.011	22.7394
932.904	57.572
935.797	43.7599
938.689	55.4614
941.582	80.8424
944.475	105.158
947.367	81.1565
950.26	95.9547
953.153	97.3591
956.045	175.309
958.938	149.273
961.831	236.993
964.724	209.09
967.616	256.683
970.509	256.007
973.402	235.556
976.294	243.482
979.187	188.77
982.08	164.643
984.972	164.608
987.865	166.485
990.758	180.625
993.651	173.673
996.543	176.436
999.436	159.829
1002.33	88.4186
1005.22	60.5541
1008.11	59.61
1011.01	16.2438
1013.9	20.8955
1016.79	7.02063
1019.68	49.0304
1022.58	15.4294
1025.47	3.36011
1028.36	15.6661
1031.26	9.05054
1034.15	38.8839
1037.04	34.2615
1039.93	40.16
1042.83	52.0712
1045.72	73.9469
1048.61	77.9285
1051.51	81.5426
1054.4	91.8567
1057.29	59.5411
1060.18	38.6935
1063.08	37.7634
1065.97	78.5695
1068.86	38.0928
1071.75	39.4468
1074.65	65.3326
1077.54	70.2173
1080.43	66.3077
1083.32	83.2098
1086.22	61.4386
1089.11	50.3541
1092	34.2372
1094.89	18.0685
1097.79	40.5693
1100.68	40.5492
1103.57	31.4213
1106.47	3.03809
1109.36	36.3752
1112.25	12.595
1115.14	22.7798
1118.04	19.4778
1120.93	2.2749
1123.82	45.8519
1126.71	29.1641
1129.61	54.2576
1132.5	52.1298
1135.39	22.986
1138.29	28.1001
1141.18	47.0839
1144.07	6.57996
1146.96	31.5602
1149.86	17.0748
1152.75	39.8295
1155.64	4.27466
1158.53	29.0986
1161.43	22.1685
1164.32	42.0104
1167.21	69.1158
1170.11	26.351
1173	59.6615
1175.89	8.23157
1178.78	29.6641
1181.68	14.8503
1184.57	12.8377
1187.46	40.9097
1190.35	29.2127
1193.25	28.7023
1196.14	54.9032
1199.03	31.765
1201.92	39.0742
1204.82	25.9694
1207.71	53.7782
1210.6	26.5707
1213.5	59.8217
1216.39	30.1729
1219.28	58.2109
1222.17	47.102
1225.07	21.8622
1227.96	3.65063
1230.85	56.3614
1233.74	1.67175
1236.64	0.06958
