Measurement: Raman, 532 nm, unoriented, Raman Data Processed
Mineral: Pumpellyite-(Mg)
Rruff sample: R070130
Ideal chemistry: Ca_2_MgAl_2_(SiO_4_)(Si_2_O_7_)(OH)_2_H_2_O
Locality: Isle Royale National Park, Lake Superior,  Keweenaw County, Michigan, USA
Source: Michael Scott
Description: Green waterworn massive pebble
Raman shift (cm-1)	intensity
164.163	0
167.056	111.478
169.948	17.082
172.841	114.062
175.734	59.3652
178.627	52.4199
181.519	69.0762
184.412	104.135
187.305	164.818
190.197	127.621
193.09	208.543
195.983	223.217
198.875	201.652
201.768	306.941
204.661	326.734
207.554	332.435
210.446	391.482
213.339	492.498
216.232	480.482
219.124	556.215
222.017	605.303
224.91	640.305
227.803	569.266
230.695	440.603
233.588	461.928
236.481	300.258
239.373	332.219
242.266	259.467
245.159	160.787
248.051	135.91
250.944	108.199
253.837	179.254
256.729	49.0938
259.622	125.982
262.515	34.1055
265.408	9.57812
268.3	69.1309
271.193	111.129
274.086	116.879
276.978	108.408
279.871	211.728
282.764	122.926
285.656	167.168
288.549	240.246
291.442	209.684
294.335	212.543
297.227	168.916
300.12	79.8262
303.013	190.231
305.905	171.307
308.798	144.103
311.691	250.719
314.584	150.289
317.476	203.941
320.369	90.2402
323.262	213.065
326.154	111.736
329.047	111.678
331.94	53.4805
334.832	2.39453
337.725	44.6875
340.618	13.7207
343.51	73.5078
346.403	174.039
349.296	282.397
352.189	389.568
355.081	530.746
357.974	456.047
360.867	561.623
363.76	547.746
366.652	714.859
369.545	573.59
372.438	525.756
375.33	586.873
378.223	568.998
381.116	388.578
384.008	202.982
386.901	205.986
389.794	182.451
392.687	164.422
395.579	43.6211
398.472	145.5
401.365	38.0996
404.257	69.6348
407.15	129.553
410.043	100.627
412.935	388.715
415.828	387.022
418.721	347.316
421.613	291.787
424.506	363.266
427.399	286.369
430.292	309.269
433.184	93.3457
436.077	189.297
438.97	102.137
441.862	6.0293
444.755	163.402
447.648	55.8633
450.541	115.363
453.433	123.949
456.326	175.385
459.219	19.9551
462.111	50.1914
465.004	1.16797
467.897	188.406
470.789	169.426
473.682	98.3359
476.575	274.779
479.467	355.518
482.36	342.502
485.253	441.506
488.146	405.088
491.038	233.902
493.931	359.883
496.824	244.113
499.716	223.08
502.609	125.693
505.502	40.1582
508.394	196.773
511.287	29.5684
514.18	78.9297
517.073	146.633
519.965	21.9668
522.858	59.7793
525.751	196.875
528.643	149.574
531.536	158.315
534.429	204.906
537.322	305.949
540.214	339.723
543.107	292.852
546	331.109
548.892	199.891
551.785	37.2734
554.678	64.1484
557.57	11.9375
560.463	48.625
563.356	63
566.249	140.043
569.141	64.2891
572.034	71.4688
574.927	221.289
577.819	244.621
580.712	185.754
583.605	286.535
586.497	352.879
589.39	355.199
592.283	417.871
595.176	486.453
598.068	576.496
600.961	583.25
603.854	505.977
606.746	360.008
609.639	354.356
612.532	97.9805
615.424	184.727
618.317	72.3828
621.21	42.5742
624.103	88.0469
626.995	19.7773
629.888	132.051
632.781	28.1367
635.673	100.758
638.566	35.1641
641.459	74.4375
644.351	16.8555
647.244	87.8359
650.137	74.0039
653.03	253.41
655.922	145.156
658.815	230.746
661.708	311.512
664.6	274.394
667.493	83.4258
670.386	176.965
673.279	380.828
676.171	271.93
679.064	382.551
681.957	515.566
684.849	685.727
687.742	874.672
690.635	1019.8
693.527	1256.49
696.42	1188.65
699.313	891.856
702.206	814.789
705.098	690.66
707.991	447.402
710.884	393.856
713.776	200.512
716.669	187.387
719.562	3.41797
722.454	86.7188
725.347	113.519
728.24	30.9102
731.133	8.10156
734.025	167.406
736.918	77.4766
739.811	11.3984
742.703	151.25
745.596	113.797
748.489	86.1875
751.381	119.523
754.274	201.801
757.167	19.8398
760.06	45.9336
762.952	44.2852
765.845	208.918
768.738	14.1797
771.63	57.0508
774.523	189.066
777.416	160.254
780.308	116.812
783.201	192.434
786.094	44.9883
788.987	148.43
791.879	62.125
794.772	71.3711
797.665	223.633
800.557	267.191
803.45	208.34
806.343	272.242
809.236	450.164
812.128	454.481
815.021	419.516
817.914	307.457
820.806	287.965
823.699	350.738
826.592	244.293
829.484	2.88672
832.377	76.1133
835.27	233.035
838.163	11.4922
841.055	37.9062
843.948	23.0352
846.841	254.555
849.733	242.004
852.626	132.027
855.519	210.555
858.411	125.184
861.304	250.031
864.197	366.598
867.09	339.426
869.982	162.969
872.875	220.844
875.768	218.133
878.66	213.297
881.553	166.367
884.446	195.93
887.338	176.613
890.231	144.523
893.124	237.797
896.016	46.1406
898.909	4.51953
901.802	71.8203
904.695	206.805
907.587	151.617
910.48	291.277
913.373	263.258
916.265	376.164
919.158	377.078
922.051	311.508
924.943	290.465
927.836	226.066
930.729	174.457
933.622	160.504
936.514	157.547
939.407	55.668
942.3	153.312
945.192	137.656
948.085	90.457
950.978	247.535
953.87	121.352
956.763	134.133
959.656	104.633
962.549	68.6211
965.441	40.3125
968.334	45.7266
971.227	106.699
974.119	127.629
977.012	382.633
979.905	481.625
982.798	461.106
985.69	342.715
988.583	255.648
991.476	412.75
994.368	382.535
997.261	453.789
1000.15	520.031
1003.05	651.688
1005.94	467.406
1008.83	309.262
1011.73	259.906
1014.62	279.363
1017.51	270.66
1020.4	251.16
1023.29	224.852
1026.19	200.383
1029.08	78.1289
1031.97	62.1211
1034.87	4.83203
1037.76	143.223
1040.65	159.613
1043.54	269.16
1046.44	21.6914
1049.33	117.699
1052.22	44.8008
1055.12	148.606
1058.01	114.523
1060.9	177.43
1063.79	72.168
1066.69	64.1758
1069.58	277.617
1072.47	196.109
1075.36	67.1758
1078.26	106.262
1081.15	295.777
1084.04	149.231
1086.93	122.516
1089.83	240.144
1092.72	304.555
1095.61	245.641
1098.51	3.54688
1101.4	65.3008
1104.29	83.3086
1107.18	32.2461
1110.08	165.887
1112.97	116.492
1115.86	164.559
1118.76	50.9883
1121.65	93.1367
1124.54	23.4805
1127.43	215.973
1130.33	149.57
1133.22	368.391
1136.11	118.289
1139	78.0938
1141.9	163.336
1144.79	94.207
1147.68	15.9492
1150.57	307.481
1153.47	124.457
1156.36	115.078
1159.25	119.285
1162.14	137.938
1165.04	256.871
1167.93	102.527
1170.82	292.699
1173.72	190.457
1176.61	222.656
1179.5	164.715
1182.39	211.414
1185.29	77.9922
1188.18	68.8359
1191.07	113.641
1193.96	130.164
1196.86	63.7031
1199.75	13.8359
1202.64	70.5742
1205.54	44.4961
1208.43	235.031
1211.32	149.231
1214.21	166.562
1217.11	134.269
1220	58.3047
1222.89	41.9414
1225.78	43.1523
1228.68	309.742
1231.57	42.4258
1234.46	0.414063
1237.36	243.062
1240.25	124.242
1243.14	93.082
1246.03	322.992
1248.93	143.981
1251.82	64.0664
1254.71	50.082
1257.6	266.164
1260.5	326.656
1263.39	245.301
1266.28	191.426
1269.17	341.277
1272.07	124.07
1274.96	291.891
1277.85	234
1280.75	337.566
1283.64	213.719
1286.53	272.926
1289.42	313.519
1292.32	192.984
1295.21	2.50781
1298.1	243.848
1300.99	114.309
1303.89	45.7578
1306.78	101.09
1309.67	28.0938
