Measurement: Raman, 785 nm, unoriented, Raman Data Processed
Mineral: Pumpellyite-(Mg)
Rruff sample: R070130
Ideal chemistry: Ca_2_MgAl_2_(SiO_4_)(Si_2_O_7_)(OH)_2_H_2_O
Locality: Isle Royale National Park, Lake Superior,  Keweenaw County, Michigan, USA
Source: Michael Scott
Description: Green waterworn massive pebble
Raman shift (cm-1)	intensity
186.878	0
189.771	35.6562
192.663	46.3301
195.556	282.705
198.449	403.553
201.341	444.332
204.234	467.44
207.127	315.619
210.019	321.184
212.912	228.49
215.805	392.356
218.698	447.887
221.59	483.584
224.483	513.561
227.376	527.037
230.268	501.51
233.161	506.758
236.054	389.65
238.946	361.879
241.839	428.785
244.732	326.422
247.625	433.535
250.517	173.856
253.41	245.272
256.303	278.512
259.195	271.967
262.088	202.371
264.981	353.701
267.873	246.185
270.766	209.279
273.659	401.867
276.552	257.891
279.444	331.594
282.337	389.662
285.23	286.117
288.122	343.562
291.015	269.168
293.908	261.029
296.8	104.967
299.693	17.6875
302.586	162.519
305.478	143.914
308.371	156.996
311.264	139.293
314.157	66.8477
317.049	11.4062
319.942	37.8652
322.835	12.7461
325.727	39.8984
328.62	51.3105
331.513	95.334
334.406	94.1504
337.298	39.6777
340.191	8.62891
343.084	126.037
345.976	177.318
348.869	272.545
351.762	387.228
354.654	522.082
357.547	415.469
360.44	549.506
363.333	583.002
366.225	534.193
369.118	729.072
372.011	730.34
374.903	773.668
377.796	764.984
380.689	620.514
383.582	507.26
386.474	521.49
389.367	442.871
392.26	359.685
395.152	320.008
398.045	373.574
400.938	177.816
403.83	122.941
406.723	234.76
409.616	311.816
412.508	100.791
415.401	348.387
418.294	362.379
421.187	378.551
424.079	298.932
426.972	249.143
429.865	113.547
432.757	128.293
435.65	43.8945
438.543	172.836
441.435	99.6777
444.328	158.525
447.221	104.228
450.113	68.543
453.006	112
455.899	69.2481
458.792	121.303
461.684	25.707
464.577	9.90234
467.47	82.3379
470.362	24.5605
473.255	86.3848
476.148	13.7266
479.041	149.227
481.933	143.885
484.826	246.596
487.719	266.693
490.611	398.481
493.504	223.162
496.397	197.92
499.289	199.56
502.182	207.576
505.075	140.191
507.967	206.74
510.86	229.211
513.753	273.107
516.646	71.9121
519.538	184.627
522.431	222.943
525.324	56.8438
528.216	33.3945
531.109	107.01
534.002	243.637
536.894	184.363
539.787	212.648
542.68	312.422
545.573	124.961
548.465	175.459
551.358	86.8301
554.251	26.2559
557.143	44.6934
560.036	70.2871
562.929	86.4004
565.822	4.6582
568.714	10.5
571.607	43.0918
574.5	103.803
577.392	257.318
580.285	254.916
583.178	398.369
586.07	329.252
588.963	432.887
591.856	531.262
594.749	405.887
597.641	451.092
600.534	668.984
603.427	588.602
606.319	593.896
609.212	395.31
612.105	275.525
614.997	331.877
617.89	98.5078
620.783	111.035
623.676	104.914
626.568	8.1543
629.461	7.29883
632.354	123.059
635.246	22.1602
638.139	9.24023
641.032	65.6562
643.924	15.0918
646.817	42.4746
649.71	70.9824
652.602	22.2109
655.495	10.252
658.388	48.1152
661.281	147.121
664.173	8.88867
667.066	115.275
669.959	150.768
672.851	172.57
675.744	316.912
678.637	417.719
681.529	471.742
684.422	557.221
687.315	681.926
690.208	917
693.1	1045.2
695.993	1134.81
698.886	1035.88
701.778	846.889
704.671	689.182
707.564	627.16
710.457	409.732
713.349	395.981
716.242	324.232
719.135	206.801
722.027	240.234
724.92	191.678
727.813	155.807
730.705	85.6777
733.598	163.945
736.491	150.43
739.384	186.627
742.276	160.981
745.169	171.201
748.062	296.572
750.954	146.256
753.847	86.0977
756.74	151.815
759.632	24.1094
762.525	10.9121
765.418	77.1133
768.31	35.5312
771.203	0.099609
774.096	65.4043
776.989	22.625
779.881	24.5703
782.774	3.25391
785.667	92.8144
788.559	53.6113
791.452	104.174
794.345	29.2656
797.237	132.547
800.13	1.77148
803.023	136.838
805.915	201.135
808.808	145.475
811.701	290.654
814.594	248.174
817.486	214.834
820.379	321.754
823.272	99.3047
826.164	145.309
829.057	44.1934
831.95	29.6191
834.842	70.4062
837.735	1.79102
840.628	119.076
843.521	184.207
846.413	83.6211
849.306	182.232
852.199	130.305
855.091	199.584
857.984	183.256
860.877	257.324
863.769	270.303
866.662	261.205
869.555	309.269
872.448	249.381
875.34	180.65
878.233	126.272
881.126	192.122
884.018	103.445
886.911	121.643
889.804	6.49414
892.697	34.0586
895.589	74.8076
898.482	6.08301
901.375	17.2744
904.267	64.8301
907.16	92.2139
910.053	152.672
912.945	288.522
915.838	277.638
918.731	299.252
921.624	306.659
924.516	269.268
927.409	250.539
930.302	345.712
933.194	185.533
936.087	103.247
938.98	162.39
941.872	103.189
944.765	167.248
947.658	84.0127
950.551	87.8174
953.443	90.2217
956.336	147.466
959.229	112.462
962.121	238.361
965.014	62.6065
967.907	55.0185
970.799	126.309
973.692	224.496
976.585	239.254
979.477	263.986
982.37	344.065
985.263	283.297
988.156	415.315
991.048	276.18
993.941	315.167
996.834	212.968
999.726	169.9
1002.62	280.242
1005.51	124.724
1008.4	124.074
1011.3	207.007
1014.19	242.65
1017.08	77.2422
1019.98	65.7529
1022.87	46.8535
1025.76	103.197
1028.65	15.1191
1031.55	2.83398
1034.44	6.13281
1037.33	48.0908
1040.22	118.572
1043.12	58.6611
1046.01	16.6318
1048.9	47.1963
1051.8	88.7686
1054.69	98.1299
1057.58	55.2988
1060.47	128.102
1063.37	12.5
1066.26	26.3242
1069.15	63.0762
1072.04	64.3418
1074.94	82.4072
1077.83	61.1904
1080.72	16.1758
1083.62	26.4404
1086.51	97.6397
1089.4	81.4062
1092.29	56.2129
1095.18	66.1123
1098.08	137.045
1100.97	42.4815
1103.86	14.5566
1106.76	65.2031
1109.65	44.7666
1112.54	92.5352
1115.43	45.1289
1118.33	102.811
1121.22	112.81
1124.11	32.1504
1127.01	45.6709
1129.9	34.2344
1132.79	94.1025
1135.68	94.3232
1138.58	15.3096
1141.47	49.0586
1144.36	22.2812
1147.25	109.106
1150.15	120.574
1153.04	43.5703
1155.93	56.0625
1158.83	83.8945
1161.72	89.874
1164.61	73.1865
1167.5	39.5547
1170.4	17.2021
1173.29	80.3291
1176.18	73.335
1179.07	51.9404
1181.97	146.048
1184.86	162.374
1187.75	52.6865
1190.64	39.2402
1193.54	37.1728
1196.43	67.3311
1199.32	37.3691
1202.21	49.1758
1205.11	77.5693
1208	40.3115
1210.89	2.48144
1213.79	95.8242
1216.68	66.8447
1219.57	12.0185
1222.46	110.64
1225.36	96.2041
1228.25	30.4473
1231.14	65.5772
1234.04	45.9951
