Measurement: Raman, 780 nm, unoriented, Raman Data Processed
Mineral: Pumpellyite-(Mg)
Rruff sample: R120172
Ideal chemistry: Ca_2_MgAl_2_(SiO_4_)(Si_2_O_7_)(OH)_2_H_2_O
Locality: Archidona, Malaga Province, Spain
Source: Bob Jenkins
Description: Aggregates of dark-green acicular crystals, associated with light green epidote
Raman shift (cm-1)	intensity
110.845	0
114.219	8.32996
117.594	2.56915
120.969	0.093933
124.344	0.798096
127.719	3.38928
131.094	6.87854
134.468	1.75861
137.843	7.22699
141.218	12.1329
144.593	16.621
147.968	18.5485
151.342	17.4496
154.717	15.1824
158.092	14.5712
161.467	15.2196
164.842	18.4774
168.216	21.0572
171.591	24.0921
174.966	29.4889
178.341	37.1726
181.716	46.8567
185.09	51.7792
188.465	55.8635
191.84	60.5402
195.215	65.0242
198.59	64.4931
201.965	65.094
205.339	57.4228
208.714	47.4231
212.089	39.9172
215.464	32.9346
218.839	29.8404
222.214	22.6665
225.588	16.4381
228.963	9.79294
232.338	5.33795
235.713	0.386414
239.088	0.143127
242.462	0.038025
245.837	1.13205
249.212	2.62964
252.587	1.1311
255.962	1.09613
259.336	2.94604
262.711	1.16241
266.086	3.61176
269.461	7.53757
272.836	11.5987
276.211	15.3546
279.585	17.7229
282.96	18.5511
286.335	17.6597
289.71	17.6104
293.085	14.434
296.459	12.4494
299.834	7.8128
303.209	7.45801
306.584	4.03302
309.959	4.40808
313.334	5.58307
316.708	2.16586
320.083	0.968903
323.458	0.7323
326.833	1.73508
330.207	4.08536
333.582	0.98468
336.957	2.13019
340.332	2.02643
343.707	6.72607
347.082	10.4957
350.456	12.9647
353.831	14.5492
357.206	14.0692
360.581	14.0205
363.956	11.1321
367.33	12.0701
370.705	12.8131
374.08	11.8319
377.455	12.38
380.83	12.9535
384.205	12.5067
387.579	11.8811
390.954	10.7871
394.329	12.0326
397.704	12.2274
401.079	14.2923
404.453	16.4548
407.828	19.3407
411.203	22.0324
414.578	25.7062
417.953	26.252
421.327	27.5222
424.702	27.9992
428.077	29.2204
431.452	26.8005
434.827	24.2371
438.202	25.8351
441.576	25.4411
444.951	24.2321
448.326	23.4047
451.701	20.1098
455.076	20.7749
458.45	18.2682
461.825	13.7974
465.2	11.4715
468.575	10.8135
471.95	12.2408
475.325	13.0146
478.699	16.2836
482.074	15.1972
485.449	14.4671
488.824	12.9066
492.199	11.4197
495.573	12.5172
498.948	13.8373
502.323	14.1138
505.698	15.4098
509.073	16.7432
512.447	9.11682
515.822	6.67908
519.197	2.5878
522.572	0.683411
525.947	1.09595
529.322	1.74365
532.696	0.02829
536.071	2.38538
539.446	2.15521
542.821	3.45978
546.196	0.600006
549.57	0.735565
552.945	0.741028
556.32	0.337677
559.695	1.4527
563.07	1.436
566.444	5.94751
569.819	7.09265
573.194	7.94777
576.569	10.6591
579.944	11.7293
583.319	13.8344
586.693	11.7057
590.068	12.1074
593.443	14.3223
596.818	15.1443
600.193	15.0971
603.567	11.9925
606.942	8.36795
610.317	4.30016
613.692	2.48933
617.067	0.947449
620.442	0.392593
623.816	1.37494
627.191	0.199783
630.566	0.448456
633.941	0.919525
637.316	2.43819
640.69	3.67363
644.065	1.21317
647.44	3.33687
650.815	3.64198
654.19	3.27887
657.564	3.00545
660.939	4.87172
664.314	4.82579
667.689	7.4998
671.064	9.12897
674.439	10.7506
677.813	13.7487
681.188	16.0413
684.563	18.4324
687.938	24.9452
691.313	27.4978
694.688	27.5834
698.062	23.4944
701.437	17.372
704.812	13.907
708.187	10.0385
711.562	8.07608
714.936	5.97324
718.311	4.28743
721.686	2.54364
725.061	3.61237
728.436	1.87569
731.81	2.84041
735.185	1.58746
738.56	1.13365
741.935	0.611816
745.31	0.580566
748.684	0.243729
752.059	1.64983
755.434	0.621048
758.809	0.208817
762.184	0.682861
765.559	0.189056
768.933	1.78929
772.308	1.92259
775.683	0.272537
779.058	0.764664
782.433	0.910431
785.808	1.50604
789.182	2.73622
792.557	2.23879
795.932	3.68175
799.307	4.74876
802.682	5.97292
806.056	7.06937
809.431	7.92419
812.806	7.9454
816.181	6.19515
819.556	5.88239
822.93	3.9601
826.305	3.34615
829.68	3.64436
833.055	3.95692
836.43	4.46454
839.804	5.6174
843.179	7.65128
846.554	8.13593
849.929	7.83627
853.304	8.66067
856.679	11.2916
860.053	9.56764
863.428	12.809
866.803	11.6553
870.178	8.91425
873.553	7.84627
876.927	5.8694
880.302	4.87459
883.677	2.86636
887.052	1.40617
890.427	0.935043
893.802	0.320282
897.176	0.76329
900.551	0.517441
903.926	3.2993
907.301	3.5813
910.676	4.67235
914.05	7.15125
917.425	7.00539
920.8	6.06398
924.175	6.12654
927.55	5.0282
930.924	4.4968
934.299	3.04393
937.674	3.03603
941.049	3.74727
944.424	3.68286
947.799	0.734741
951.173	1.7668
954.548	2.86031
957.923	2.59425
961.298	3.30933
964.673	2.17201
968.047	4.19006
971.422	2.59201
974.797	2.95021
978.172	2.43779
981.547	4.2404
984.922	4.17351
988.296	5.22504
991.671	4.00647
995.046	4.69797
998.421	4.0721
1001.8	4.5047
1005.17	4.54398
1008.54	3.06116
1011.92	3.17871
1015.29	1.37961
1018.67	1.06915
1022.04	0.631577
1025.42	1.28395
1028.79	0.933746
1032.17	0.106766
1035.54	0.749176
1038.92	0.068558
1042.29	0.667999
1045.67	1.28769
1049.04	1.24199
1052.42	1.4063
1055.79	0.461212
1059.17	2.09447
1062.54	2.6214
1065.92	1.66541
1069.29	1.74948
1072.67	1.51054
1076.04	1.09788
1079.42	0.468842
1082.79	0.999451
1086.17	0.985809
1089.54	1.73476
1092.92	0.543243
1096.29	0.77211
1099.66	0.91803
1103.04	1.02436
1106.41	0.405418
1109.79	1.77499
1113.16	0.594376
1116.54	0.895729
1119.91	1.61391
1123.29	2.09681
1126.66	1.37932
1130.04	1.42361
1133.41	1.84901
1136.79	1.8759
1140.16	1.19064
1143.54	1.79476
1146.91	2.44335
1150.29	2.50211
1153.66	0.722717
1157.04	2.23495
1160.41	1.74374
1163.79	3.21873
1167.16	1.74531
1170.54	2.81982
1173.91	2.87296
1177.29	3.51346
1180.66	1.08887
1184.04	2.55117
1187.41	1.66883
1190.79	2.27301
1194.16	2.19371
1197.54	1.77295
1200.91	1.61179
1204.28	0.00573
1207.66	0.630074
1211.03	0.964394
1214.41	1.53359
1217.78	0.439034
1221.16	0.268639
1224.53	0.679092
1227.91	0.655388
1231.28	0.616013
1234.66	0.918381
1238.03	0.812592
1241.41	0.24472
1244.78	0.501175
1248.16	2.85786
1251.53	1.31609
1254.91	2.12505
1258.28	2.70911
1261.66	1.0114
1265.03	2.40994
1268.41	1.09598
1271.78	0.642838
1275.16	0.741913
1278.53	0.394234
1281.9	1.57383
