Measurement: Raman, 785 nm, unoriented, Raman Data Processed
Mineral: Pumpellyite-(Al)
Rruff sample: R070131
Ideal chemistry: Ca_2_Al_3_(SiO_4_)(Si_2_O_7_)(OH,O)_2_H_2_O
Locality: La Fl√®che Quarry, Bertrix, Luxembourg Province, Belgium
Source: Michael Scott
Description: Pale green radiating fibrous to bladed crystals
Raman shift (cm-1)	intensity
164.701	0
167.593	10.2007
170.486	71.3484
173.379	67.5876
176.271	110.699
179.164	143.65
182.057	206.737
184.949	264.141
187.842	324.25
190.735	334.44
193.627	361.626
196.52	401.585
199.413	354.693
202.306	375.957
205.198	350.012
208.091	336.725
210.984	358.193
213.876	330.139
216.769	333.106
219.662	329.405
222.554	342.551
225.447	353.58
228.34	343.3
231.233	324.117
234.125	214.174
237.018	187.783
239.911	144.405
242.803	117.357
245.696	68.3796
248.589	83.366
251.482	10.2165
254.374	37.073
257.267	23.8774
260.16	13.3472
263.052	17.8079
265.945	11.176
268.838	26.646
271.73	68.1958
274.623	82.9795
277.516	205.465
280.409	247.791
283.301	163.154
286.194	195.555
289.087	154.955
291.979	136.993
294.872	138.48
297.765	75.6187
300.657	32.8911
303.55	63.7234
306.443	89.8372
309.336	59.0727
312.228	34.3921
315.121	98.3897
318.014	39.9348
320.906	63.9673
323.799	69.7502
326.692	23.3628
329.584	23.9231
332.477	34.0564
335.37	56.3845
338.262	48.5549
341.155	71.0642
344.048	101.279
346.941	143.34
349.833	158.557
352.726	301.868
355.619	391.547
358.511	414.007
361.404	406.979
364.297	422.728
367.19	461.188
370.082	502.58
372.975	558.282
375.868	550.121
378.76	618.883
381.653	469.176
384.546	461.755
387.438	422.397
390.331	347.059
393.224	289.369
396.116	253.586
399.009	251.602
401.902	155.447
404.795	151.587
407.687	101.54
410.58	117.266
413.473	141.531
416.365	121.278
419.258	119.232
422.151	138.232
425.043	131.423
427.936	81.0032
430.829	4.37109
433.722	26.8391
436.614	22.8657
439.507	31.1419
442.4	38.1262
445.292	20.374
448.185	10.2705
451.078	0.966064
453.971	22.8926
456.863	9.67627
459.756	24.553
462.649	19.3645
465.541	31.4612
468.434	42.7124
471.327	84.6709
474.219	43.6655
477.112	73.7742
480.005	125.325
482.897	162.532
485.79	226.481
488.683	240.53
491.576	269.177
494.468	280.826
497.361	250.619
500.254	227.118
503.146	137.829
506.039	106.033
508.932	68.5681
511.824	83.5791
514.717	72.895
517.61	13.2248
520.503	27.3701
523.395	56.6133
526.288	29.7625
529.181	64.2041
532.073	74.1233
534.966	147.496
537.859	142.496
540.751	160.823
543.644	186.359
546.537	176.139
549.43	128.686
552.322	75.6248
555.215	83.6694
558.108	12.8015
561	30.4497
563.893	38.0327
566.786	3.01904
569.678	20.0244
572.571	28.4082
575.464	30.8638
578.356	79.738
581.249	105.188
584.142	142.865
587.035	175.308
589.927	184.155
592.82	183.483
595.713	208.132
598.605	247.103
601.498	333.851
604.391	323.648
607.284	297.739
610.176	288.773
613.069	159.136
615.962	151.65
618.854	76.9839
621.747	92.6741
624.64	30.1321
627.532	24.4641
630.425	40.2468
633.318	17.3474
636.211	28.6184
639.103	12.981
641.996	5.09326
644.889	0.609863
647.781	12.4043
650.674	19.2483
653.567	17.231
656.459	10.532
659.352	2.56006
662.245	20.384
665.138	30.3289
668.03	47.0601
670.923	62.364
673.816	75.6838
676.708	100.367
679.601	136.54
682.494	179.323
685.386	261.501
688.279	366.807
691.172	444.136
694.064	512.605
696.957	549.396
699.85	514.903
702.743	459.919
705.635	382.672
708.528	292.673
711.421	248.751
714.313	202.138
717.206	127.308
720.099	154.524
722.991	103.573
725.884	100.851
728.777	81.6979
731.67	93.447
734.562	73.5566
737.455	61.1977
740.348	64.7471
743.24	49.8578
746.133	69.6487
749.026	37.2041
751.918	62.8004
754.811	25.5785
757.704	26.6309
760.597	1.40393
763.489	1.36194
766.382	14.9038
769.275	6.83362
772.167	10.277
775.06	17.3468
777.953	4.11951
780.846	11.359
783.738	0.026978
786.631	39.2949
789.524	7.96777
792.416	7.30359
795.309	45.6871
798.202	42.3096
801.094	28.2728
803.987	71.2832
806.88	83.1612
809.773	121.076
812.665	168.499
815.558	177.323
818.451	138.529
821.343	121.71
824.236	70.5226
827.129	4.005
830.021	57.5703
832.914	45.8201
835.807	28.6188
838.699	9.79602
841.592	8.68445
844.485	5.66113
847.378	19.3538
850.27	44.7395
853.163	16.8984
856.056	70.3605
858.948	65.2246
861.841	93.9959
864.734	102.266
867.626	86.6641
870.519	80.934
873.412	92.5594
876.305	66.6879
879.197	83.6227
882.09	32.4518
884.983	81.0008
887.875	82.9978
890.768	37.4023
893.661	41.4404
896.553	93.2083
899.446	62.9939
902.339	29.5574
905.232	90.2407
908.124	78.0061
911.017	139.637
913.91	166.273
916.802	161.705
919.695	248.466
922.588	239.572
925.481	250.372
928.373	223.377
931.266	172.567
934.159	125.344
937.051	90.9739
939.944	68.1152
942.837	6.65454
945.729	11.8994
948.622	36.6738
951.515	49.2441
954.407	54.5857
957.3	11.4082
960.193	0.642456
963.086	22.0513
965.978	33.6792
968.871	68.2383
971.764	128.409
974.656	104.92
977.549	149.377
980.442	109.145
983.334	174.57
986.227	163.139
989.12	181.986
992.013	167.417
994.905	169.603
997.798	148.395
1000.69	107.215
1003.58	142.336
1006.48	102.925
1009.37	119.966
1012.26	84.8269
1015.15	79.3373
1018.05	34.8214
1020.94	36.4171
1023.83	42.5227
1026.72	8.14368
1029.62	20.1281
1032.51	15.6666
1035.4	17.7544
1038.3	19.8495
1041.19	40.3556
1044.08	8.52551
1046.97	5.12915
1049.87	31.335
1052.76	32.6033
1055.65	30.2749
1058.55	39.4287
1061.44	6.8606
1064.33	31.6831
1067.22	48.3275
1070.12	9.23706
1073.01	26.6494
1075.9	22.1593
1078.79	68.2842
1081.69	112.541
1084.58	256.509
1087.47	235.54
1090.36	145.166
1093.26	40.5253
1096.15	25.4666
1099.04	27.874
1101.93	15.9106
1104.83	7.99609
1107.72	26.1531
1110.61	24.9269
1113.51	29.4482
1116.4	76.4259
1119.29	11.5698
1122.18	31.9457
1125.08	18.6532
1127.97	13.2685
1130.86	23.1075
1133.76	34.4768
1136.65	25.4185
1139.54	45.4363
1142.43	68.5105
1145.33	29.411
1148.22	55.145
1151.11	53.8173
1154	72.5396
1156.9	57.8162
1159.79	69.6469
1162.68	103.447
1165.57	74.3456
1168.47	77.7505
1171.36	93.4381
1174.25	74.4729
1177.14	79.9026
1180.04	67.0596
1182.93	87.9673
1185.82	99.0203
1188.72	80.3919
1191.61	66.9399
1194.5	78.6202
1197.39	52.3213
1200.29	87.0195
1203.18	56.2573
1206.07	74.087
1208.96	68.068
1211.86	20.1682
1214.75	61.2343
1217.64	23.0935
1220.54	15.7253
1223.43	18.7324
1226.32	31.0901
