Measurement: Raman, 532 nm, unoriented, Raman Data Processed
Mineral: Pyrargyrite
Rruff sample: R050290
Ideal chemistry: Ag^1+^_3_Sb^3+^S^2-^_3_
Locality: San Guillermo Vein, Cueva Santa area, San Luis Shaft, Proa√±o mine, Fresnillo, Zacatecas, Mexico
Source: Dave Bunk Minerals
Description: Prismatic single crystal, deep red color on freshly broken surface
Measured chemistry: Ag_3.00_Sb_1.00_S_3.00_
Raman shift (cm-1)	intensity
141.047	0
144.422	0.421849
147.797	0.003394
151.172	0.784505
154.547	0.379874
157.921	0.928384
161.296	1.16709
164.671	1.19364
168.046	1.40072
171.421	1.99921
174.796	1.92937
178.17	2.1092
181.545	2.07873
184.92	1.66386
188.295	0.9809
191.67	1.07285
195.044	0.799886
198.419	0.723103
201.794	0.438654
205.169	0.262058
208.544	0.209963
211.918	0.346282
215.293	0.076196
218.668	0.479582
222.043	0.025936
225.418	0.569973
228.792	0.089598
232.167	0.449344
235.542	0.36293
238.917	0.210939
242.292	0.492553
245.667	0.78509
249.041	1.13498
252.416	1.05982
255.791	0.76294
259.166	0.95775
262.541	0.919326
265.916	0.723262
269.29	0.990263
272.665	0.763518
276.04	0.47115
279.415	1.05346
282.79	0.683692
286.164	1.39289
289.539	1.55894
292.914	1.22134
296.289	2.15973
299.664	3.03529
303.038	3.59714
306.413	4.67174
309.788	6.27501
313.163	7.98066
316.538	10.4711
319.913	14.5681
323.287	17.4636
326.662	13.506
330.037	6.98253
333.412	3.6075
336.787	1.87265
340.161	0.955538
343.536	0.487744
346.911	0.300564
350.286	0.050298
353.661	0.432153
357.036	0.058517
360.41	0.217432
363.785	0.479877
367.16	0.015163
370.535	0.121796
373.91	0.399798
377.284	0.205859
380.659	0.136425
384.034	0.257796
387.409	0.191518
390.784	0.383352
394.159	0.40529
397.533	0.016348
400.908	0.114015
404.283	0.232978
407.658	0.780345
411.033	0.353186
414.407	0.49941
417.782	0.150171
421.157	0.561448
424.532	0.492466
427.907	0.222097
431.281	0.238826
434.656	0.286215
438.031	0.234612
441.406	0.020013
444.781	0.538615
448.156	0.440578
451.53	0.198592
454.905	0.400562
458.28	0.260321
461.655	0.122438
465.03	0.591868
468.404	0.169569
471.779	0.406736
475.154	0.108666
478.529	0.459682
481.904	0.518888
485.279	0.594134
488.653	0.066257
492.028	0.222851
495.403	0.336457
498.778	0.297337
502.153	0.158937
505.527	0.194596
508.902	0.263047
512.277	0.000687
515.652	0.402772
519.027	0.015422
522.402	0.726717
525.776	0.181288
529.151	0.383501
532.526	0.279594
535.901	0.347713
539.276	0.650521
542.65	0.604162
546.025	0.221292
549.4	0.598429
552.775	0.511876
556.15	0.216079
559.525	0.234438
562.899	0.206713
566.274	0.471351
569.649	0.675489
573.024	0.593181
576.399	0.280138
579.774	0.105206
583.148	0.367023
586.523	0.243539
589.898	0.048065
593.273	0.355783
596.648	0.023952
600.022	0.09593
603.397	0.24202
606.772	0.433699
610.147	0.122294
613.522	0.300792
616.896	0.463791
620.271	0.530589
623.646	0.453394
627.021	0.388609
630.396	0.397727
633.77	0.496942
637.145	0.480715
640.52	0.350288
643.895	0.377747
647.27	0.121148
650.645	0.436094
654.019	0.426937
657.394	0.316559
660.769	0.411726
664.144	0.331376
667.519	0.28132
670.894	0.170957
674.268	0.337721
677.643	0.444338
681.018	0.036726
684.393	0.241558
687.768	0.305425
691.142	0.376875
694.517	0.409294
697.892	0.385952
701.267	0.268471
704.642	0.529645
708.016	0.198999
711.391	0.018221
714.766	0.10876
718.141	0.546932
721.516	0.033174
724.891	0.51854
728.265	0.239794
731.64	0.40445
735.015	0.614373
738.39	0.511083
741.765	0.607205
745.139	0.307222
748.514	0.361691
751.889	0.57358
755.264	0.082367
758.639	0.1989
762.014	0.148364
765.388	0.465217
768.763	0.544977
772.138	0.140545
775.513	0.517792
778.888	0.197428
782.263	0.690913
785.637	0.274818
789.012	0.510173
792.387	0.280683
795.762	0.14929
799.136	0.197919
802.511	0.1968
805.886	0.399693
809.261	0.173216
812.636	0.40138
816.011	0.408309
819.385	0.210132
822.76	0.12505
826.135	0.563218
829.51	0.462844
832.885	0.128575
836.26	0.21322
839.634	0.518839
843.009	0.402685
846.384	0.613073
849.759	0.200645
853.134	0.829858
856.508	0.283546
859.883	0.574382
863.258	0.029265
866.633	0.45744
870.008	0.320858
873.383	0.218728
876.757	0.690176
880.132	0.321615
883.507	0.388982
886.882	0.227643
890.257	0.462282
893.631	0.365181
897.006	0.42961
900.381	0.13997
903.756	0.128269
907.131	0.514678
910.505	0.54975
913.88	0.257728
917.255	0.387872
920.63	0.505974
924.005	0.7021
927.38	0.36824
930.754	0.364039
934.129	0.422316
937.504	0.365426
940.879	0.462484
944.254	0.432245
947.629	0.427028
951.003	0.310516
954.378	0.265438
957.753	0.268251
961.128	0.039418
964.503	0.123213
967.877	0.29146
971.252	0.012496
974.627	0.183391
978.002	0.428252
981.377	0.624371
984.751	0.14089
988.126	0.0795
991.501	0.385167
994.876	0.623508
998.251	0.366143
1001.63	0.403412
1005	0.296394
1008.38	0.429311
1011.75	0.375864
1015.12	0.435449
1018.5	0.020684
1021.87	0.327199
1025.25	0.308971
1028.62	0.261133
1032	0.316526
1035.37	0.069406
1038.75	0.603609
1042.12	0.412847
1045.5	0.576527
1048.87	0.492595
1052.25	0.249454
1055.62	0.187093
1059	0.254082
1062.37	0.580352
1065.75	0.428921
1069.12	0.174065
1072.5	0.161099
1075.87	0.505859
1079.25	0.122166
1082.62	0.373602
1086	0.559639
1089.37	0.428741
1092.75	0.339025
1096.12	0.386948
1099.49	0.257178
1102.87	0.518419
1106.24	0.361736
1109.62	0.14541
1112.99	0.333046
1116.37	0.020276
1119.74	0.17608
1123.12	0.520847
1126.49	0.501716
1129.87	0.230428
1133.24	0.239449
1136.62	0.651289
1139.99	0.192134
1143.37	0.509065
1146.74	0.183953
1150.12	0.748931
1153.49	0.236377
1156.87	0.252322
1160.24	0.407856
1163.62	0.496976
1166.99	0.589962
1170.37	0.346575
1173.74	0.377083
1177.12	0.120768
1180.49	0.315734
1183.87	0.58954
1187.24	0.737293
1190.62	0.432487
1193.99	0.445393
1197.37	0.389258
1200.74	0.317398
1204.12	0.433903
1207.49	0.332541
1210.86	0.228721
1214.24	0.137708
1217.61	0.102299
1220.99	0.448213
1224.36	0.732035
1227.74	0.030625
1231.11	0.516969
1234.49	0.223769
1237.86	0.157519
1241.24	0.098022
1244.61	0.725519
1247.99	0.489953
1251.36	0.026567
1254.74	0.007236
1258.11	0.150561
1261.49	0.202786
1264.86	0.359681
1268.24	0.528976
1271.61	0.152862
1274.99	0.787972
1278.36	0.505566
1281.73	0.086658
1285.11	0.019821
1288.48	0.426777
1291.86	0.15079
1295.23	0.022054
1298.61	0.501698
1301.98	0.389749
