Measurement: Raman, 785 nm, unoriented, Raman Data Processed
Mineral: Pyrite
Rruff sample: R050070
Ideal chemistry: Fe^2+^(S_2_)^2-^
Locality: Mina San Jose de Huanzala, Minero de Huallanca District, Department de Huanuco, Peru
Source: Rock Currier
Description: Brass-yellow metallic cube
Measured chemistry: Fe_1.00_S_2.00_
Raman shift (cm-1)	intensity
156.696	0
159.589	10.6638
162.481	23.2327
165.374	70.2761
168.267	76.2808
171.16	52.313
174.052	31.0236
176.945	1.56189
179.838	12.9608
182.73	28.9465
185.623	90.3789
188.516	63.0979
191.408	37.1104
194.301	40.3143
197.194	63.1405
200.087	68.5054
202.979	97.6906
205.872	96.0552
208.765	91.6361
211.657	66.2845
214.55	17.5737
217.443	3.78217
220.335	1.35437
223.228	16.4939
226.121	9.36426
229.013	0.555054
231.906	11.7808
234.799	9.42549
237.692	22.6076
240.584	44.2332
243.477	30.0829
246.37	32.3848
249.262	41.8182
252.155	28.888
255.048	31.8176
257.941	24.7478
260.833	21.7241
263.726	24.2988
266.619	14.7296
269.511	42.0127
272.404	38.6774
275.297	46.0037
278.19	42.2155
281.082	33.7237
283.975	22.1028
286.868	16.3137
289.76	7.38806
292.653	1.65189
295.546	7.50258
298.438	1.43726
301.331	15.1066
304.224	7.49541
307.116	16.2754
310.009	34.7714
312.902	20.8862
315.795	24.4437
318.687	25.4659
321.58	13.686
324.473	12.4411
327.365	62.8474
330.258	207.816
333.151	279.69
336.043	350.389
338.936	545.199
341.829	1047.72
344.721	1001.37
347.614	151.924
350.507	61.1836
353.4	22.325
356.292	16.7511
359.185	18.5909
362.078	8.15099
364.97	27.4379
367.863	58.9505
370.756	71.823
373.649	104.374
376.541	190.838
379.434	304.365
382.327	96.9752
385.219	16.292
388.112	9.98811
391.005	3.59847
393.897	8.67527
396.79	4.53842
399.683	5.75508
402.575	1.04147
405.468	2.65096
408.361	1.3749
411.254	2.38337
414.146	1.87055
417.039	10.6487
419.932	6.94289
422.824	9.05479
425.717	14.8275
428.61	13.6729
431.502	8.20036
434.395	13.345
437.288	7.62247
440.181	17.2855
443.073	0.902702
445.966	8.5628
448.859	9.23235
451.751	14.6597
454.644	24.831
457.537	10.4225
460.43	22.7296
463.322	19.7306
466.215	18.8982
469.108	17.5737
472	30.9973
474.893	13.1393
477.786	8.72205
480.678	11.201
483.571	10.4601
486.464	12.6821
489.356	10.88
492.249	8.0871
495.142	15.5399
498.035	16.6711
500.927	5.99328
503.82	11.5906
506.713	4.66369
509.605	9.92802
512.498	12.6096
515.391	5.11142
518.284	3.84998
521.176	0.43161
524.069	3.25469
526.962	7.41463
529.854	5.59706
532.747	7.94511
535.64	9.75
538.533	11.7592
541.425	8.64232
544.318	10.684
547.211	12.8369
550.103	17.538
552.996	19.6659
555.889	3.75402
558.781	16.9211
561.674	18.4393
564.567	8.31429
567.459	19.0702
570.352	14.9271
573.245	7.50152
576.138	11.0076
579.03	16.9166
581.923	11.3773
584.816	11.7585
587.708	18.9409
590.601	2.0973
593.494	8.80991
596.386	3.99982
599.279	10.5154
602.172	6.21523
605.064	9.64601
607.957	8.23584
610.85	8.8923
613.743	4.55904
616.635	22.8941
619.528	3.33945
622.421	8.10782
625.313	8.03549
628.206	2.1415
631.099	6.01862
633.991	8.91144
636.884	5.43976
639.777	8.24744
642.67	2.92483
645.562	2.74132
648.455	6.07635
651.348	5.86063
654.24	3.58449
657.133	4.67811
660.026	1.53301
662.918	1.98083
665.811	4.07355
668.704	17.2571
671.597	8.14108
674.489	6.0095
677.382	11.0234
680.275	6.8297
683.167	5.2995
686.06	19.9978
688.953	3.28365
691.846	1.559
694.738	1.4641
697.631	2.6886
700.524	3.62914
703.416	1.26115
706.309	2.64735
709.202	12.9996
712.094	6.2492
714.987	15.4754
717.88	4.8313
720.773	5.10249
723.665	7.04336
726.558	16.8173
729.451	0.637093
732.343	7.37889
735.236	6.7738
738.129	3.74509
741.021	0.922745
743.914	0.340149
746.807	4.83795
749.699	5.58232
752.592	7.70998
755.485	14.0433
758.378	2.99249
761.27	16.1994
764.163	14.9205
767.056	21.695
769.948	13.8589
772.841	21.5965
775.734	20.7979
778.626	25.3254
781.519	12.8534
784.412	1.89912
787.305	22.3754
790.197	35.0343
793.09	37.9006
795.983	31.8008
798.875	36.0097
801.768	44.0196
804.661	34.3723
807.553	37.9905
810.446	35.4744
813.339	22.3248
816.232	13.5573
819.124	9.29326
822.017	7.91068
824.91	0.113464
827.802	1.76033
830.695	7.35226
833.588	14.0638
836.481	10.5229
839.373	19.7332
842.266	16.8364
845.159	15.8016
848.051	20.7583
850.944	23.7238
853.837	28.647
856.729	40.897
859.622	39.0383
862.515	57.0655
865.408	46.497
868.3	48.7768
871.193	49.4861
874.086	39.3634
876.978	10.5786
879.871	10.9114
882.764	3.93694
885.656	9.93906
888.549	8.63021
891.442	9.76872
894.335	0.730415
897.227	1.48602
900.12	4.34577
903.013	11.4409
905.905	15.5834
908.798	9.20861
911.691	11.9735
914.583	5.89062
917.476	8.07162
920.369	4.87439
923.261	7.95593
926.154	19.3554
929.047	20.9386
931.94	5.99136
934.832	11.9207
937.725	14.0376
940.618	20.0041
943.51	8.59734
946.403	6.65012
949.296	12.3743
952.188	7.22061
955.081	5.15762
957.974	7.29561
960.867	0.258652
963.759	3.45867
966.652	7.81616
969.545	9.00162
972.437	7.89355
975.33	1.83151
978.223	12.4996
981.115	10.0397
984.008	16.7665
986.901	4.67287
989.794	9.98738
992.686	11.0137
995.579	2.08024
998.472	9.88934
1001.36	3.29385
1004.26	11.4349
1007.15	3.53453
1010.04	10.9547
1012.93	5.30097
1015.83	11.5013
1018.72	7.06965
1021.61	13.9779
1024.51	7.60383
1027.4	3.12091
1030.29	10.3265
1033.18	13.4256
1036.08	6.03842
1038.97	1.32292
1041.86	4.41744
1044.76	7.05884
1047.65	11.2
1050.54	15.1584
1053.43	9.74559
1056.33	6.99481
1059.22	19.2497
1062.11	3.39871
1065	10.2866
1067.9	4.83747
1070.79	2.04108
1073.68	5.29392
1076.58	8.54301
1079.47	22.1608
1082.36	3.54216
1085.25	5.23457
1088.14	0.32589
1091.04	2.57691
1093.93	10.5027
1096.82	4.12648
1099.72	14.0998
1102.61	12.8535
1105.5	4.66869
1108.39	10.4146
1111.29	1.78656
1114.18	11.4
1117.07	2.63149
1119.96	3.54607
1122.86	16.0448
1125.75	6.59296
1128.64	8.4819
1131.54	7.54722
1134.43	16.432
1137.32	1.94382
1140.21	13.3624
1143.11	0.684692
1146	12.2919
1148.89	13.5545
1151.79	10.7792
1154.68	6.95433
1157.57	7.70569
1160.46	9.43761
1163.36	14.0769
1166.25	20.1495
1169.14	15.6505
1172.03	11.8901
1174.93	7.21574
1177.82	2.8392
1180.71	4.86764
1183.6	13.9533
1186.5	4.96275
1189.39	1.64318
1192.28	17.2837
1195.17	16.1486
1198.07	14.5705
1200.96	23.1432
1203.85	11.627
1206.75	18.2051
1209.64	8.15061
1212.53	14.7381
1215.42	16.2828
1218.32	20.3129
1221.21	8.50378
1224.1	14.4429
1226.99	8.7187
1229.89	3.58427
