Measurement: Raman, 532 nm, unoriented, Raman Data Processed
Mineral: Pyrite
Rruff sample: R070692
Ideal chemistry: Fe^2+^(S_2_)^2-^
Locality: Pohla, Schwarzenberg, Erzebirge, Saxony, Germany
Source: James Shigley
Description: Yellow-brown metallic prismatic crystals with light blue tarnish, pseudomorph after argentopyrite. Even though they look like good crystals, the sample is extremely fine-grained.
Raman shift (cm-1)	intensity
137.799	0
140.691	95.7327
143.584	36.5139
146.477	60.8606
149.37	85.6963
152.262	65.2311
155.155	65.8193
158.048	8.09155
160.94	8.90369
163.833	55.8766
166.726	33.5928
169.619	51.6859
172.511	78.5288
175.404	87.5398
178.297	92.5919
181.189	41.8975
184.082	54.2626
186.975	55.9781
189.867	49.0765
192.76	46.3888
195.653	64.5177
198.546	0.965698
201.438	18.3984
204.331	13.4813
207.224	5.11951
210.116	8.61621
213.009	5.52185
215.902	30.3754
218.794	6.32739
221.687	29.9789
224.58	37.8533
227.472	35.683
230.365	54.9524
233.258	65.7538
236.15	25.8779
239.043	48.5621
241.936	39.9304
244.829	30.8498
247.721	75.8934
250.614	20.0447
253.507	49.2722
256.399	19.4625
259.292	11.1799
262.185	37.2883
265.077	40.2869
267.97	37.0902
270.863	28.4094
273.756	20.5669
276.648	21.4
279.541	21.2939
282.434	11.3789
285.326	2.06958
288.219	2.24109
291.112	2.64343
294.005	0.583618
296.897	13.7798
299.79	39.4603
302.683	22.311
305.575	63.2294
308.468	32.457
311.361	69.0463
314.253	79.0702
317.146	101.86
320.039	121.504
322.932	234.356
325.824	272.61
328.717	373.049
331.61	482.7
334.502	511.643
337.395	649.933
340.288	633.225
343.18	554.283
346.073	487.418
348.966	413.163
351.858	462.637
354.751	520.03
357.644	595.848
360.537	701.797
363.429	830.834
366.322	991.634
369.215	1075.35
372.107	1216.64
375	1223.32
377.893	1128.34
380.785	865.019
383.678	577.348
386.571	368.716
389.464	266.022
392.356	142.006
395.249	58.1191
398.142	87.0786
401.034	48.676
403.927	54.3004
406.82	33.2927
409.712	55.0226
412.605	64.2635
415.498	56.832
418.39	64.7422
421.283	100.412
424.176	90.1156
427.069	78.3589
429.961	75.855
432.854	54.5127
435.747	16.5947
438.639	9.26892
441.532	23.9214
444.425	17.8787
447.317	19.8562
450.21	17.6678
453.103	32.1783
455.996	4.87231
458.888	4.89435
461.781	11.918
464.674	34.397
467.566	0.678223
470.459	10.5027
473.352	32.6387
476.245	29.0977
479.137	36.3155
482.03	38.431
484.923	53.2931
487.815	46.6159
490.708	26.7778
493.601	43.7988
496.493	38.4471
499.386	35.8594
502.279	38.3345
505.171	76.0452
508.064	39.9162
510.957	30.7847
513.85	59.2087
516.742	19.5703
519.635	1.20386
522.528	5.50391
525.42	25.3711
528.313	21.7254
531.206	31.7671
534.098	46.8025
536.991	18.2191
539.884	11.3099
542.777	18.3276
545.669	22.3924
548.562	22.1509
551.455	39.9109
554.347	1.01526
557.24	12.5575
560.133	19.8638
563.025	7.5628
565.918	7.27136
568.811	21.2092
571.703	45.4479
574.596	12.2104
577.489	57.907
580.382	21.7382
583.274	16.9532
586.167	21.0394
589.06	33.9758
591.952	23.441
594.845	35.6392
597.738	52.8431
600.63	34.9748
603.523	29.3043
606.416	13.7629
609.309	42.6633
612.201	31.0745
615.094	5.2962
617.987	27.493
620.879	16.2375
623.772	22.6071
626.665	52.243
629.558	23.9606
632.45	20.3256
635.343	3.39856
638.236	7.18604
641.128	22.7878
644.021	25.4075
646.914	27.2334
649.806	55.0233
652.699	12.9757
655.592	42.5548
658.485	14.6237
661.377	27.937
664.27	12.6473
667.163	32.0491
670.055	43.206
672.948	36.406
675.841	27.1811
678.733	12.9569
681.626	37.8879
684.519	3.09448
687.411	24.0172
690.304	38.5815
693.197	3.72424
696.09	25.1913
698.982	0.369385
701.875	19.5035
704.768	12.8226
707.66	19.3737
710.553	20.4869
713.446	51.8977
716.338	18.9025
719.231	26.438
722.124	45.7952
725.016	15.695
727.909	17.697
730.802	55.5618
733.695	7.59363
736.587	46.7573
739.48	8.55139
742.373	26.1274
745.265	19.3119
748.158	22.8362
751.051	22.9247
753.943	13.4941
756.836	2.02808
759.729	28.9977
762.622	25.2494
765.514	20.8368
768.407	37.8831
771.3	28.4023
774.192	37.9987
777.085	35.0059
779.978	3.10413
782.87	31.1989
785.763	25.1039
788.656	29.369
791.549	5.65466
794.441	42.2639
797.334	21.5659
800.227	10.7583
803.119	22.4608
806.012	7.75647
808.905	12.7622
811.798	2.05066
814.69	16.5803
817.583	0.848511
820.476	37.8307
823.368	1.8468
826.261	0.320068
829.154	14.7089
832.046	10.3318
834.939	1.78821
837.832	28.7676
840.724	5.19519
843.617	2.62524
846.51	17.6611
849.403	8.53052
852.295	30.3564
855.188	7.42395
858.081	7.47815
860.973	14.625
863.866	14.481
866.759	6.87744
869.651	18.8373
872.544	14.6606
875.437	15.5106
878.33	13.6958
881.222	30.4133
884.115	27.9702
887.008	34.2152
889.9	13.3986
892.793	35.9598
895.686	22.7351
898.578	14.0724
901.471	34.2588
904.364	15.3248
907.256	29.4812
910.149	5.60754
913.042	16.8237
915.935	13.1603
918.827	16.6991
921.72	39.9509
924.613	19.6974
927.505	23.083
930.398	26.1531
933.291	18.3822
936.183	24.9303
939.076	17.4373
941.969	4.45252
944.862	25.2626
947.754	35.2798
950.647	21.485
953.54	22.3434
956.432	5.19043
959.325	1.401
962.218	7.55127
965.111	5.82129
968.003	5.10925
970.896	5.30603
973.789	24.0896
976.681	10.2953
979.574	12.1342
982.467	37.9761
985.359	22.0786
988.252	34.4933
991.145	32.3325
994.038	1.18005
996.93	11.7135
999.823	35.3367
1002.72	8.12256
1005.61	39.1659
1008.5	9.29932
1011.39	39.8756
1014.29	38.801
1017.18	57.929
1020.07	21.7961
1022.96	36.0079
1025.86	30.0519
1028.75	26.3739
1031.64	26.9418
1034.54	27.5422
1037.43	42.6768
1040.32	54.818
1043.21	59.0029
1046.11	32.2922
1049	30.7512
1051.89	24.6031
1054.78	27.2252
1057.68	23.0093
1060.57	4.58875
1063.46	15.9999
1066.36	17.7184
1069.25	28.1958
1072.14	2.67029
1075.03	12.8036
1077.93	54.5662
1080.82	27.8459
1083.71	22.3987
1086.6	39.8628
1089.5	15.8746
1092.39	23.4204
1095.28	10.6124
1098.17	22.4686
1101.07	6.86255
1103.96	21.825
1106.85	45.0643
1109.74	23.0889
1112.64	51.8408
1115.53	14.354
1118.42	39.9629
1121.32	37.7909
1124.21	15.4518
1127.1	6.68762
1129.99	32.7075
1132.89	30.5013
1135.78	25.2118
1138.67	30.4965
1141.57	33.8148
1144.46	7.94336
1147.35	16.6617
1150.24	12.7837
1153.14	6.37476
1156.03	23.1606
1158.92	17.1754
1161.81	22.9805
1164.71	33.6438
1167.6	18.7035
1170.49	59.5764
1173.38	28.453
1176.28	25.813
1179.17	52.118
1182.06	11.6987
1184.96	37.8261
1187.85	33.9332
1190.74	40.4961
1193.63	2.32141
1196.53	32.7972
1199.42	26.9952
1202.31	35.1837
1205.2	21.4028
1208.1	25.1543
1210.99	10.4187
1213.88	23.4182
1216.78	29.2105
1219.67	41.6917
1222.56	37.5243
1225.45	16.9545
1228.35	1.52515
1231.24	13.27
1234.13	35.6554
1237.02	51.8805
1239.92	24.2176
1242.81	13.5903
1245.7	36.0441
1248.6	33.7836
1251.49	50.9111
1254.38	47.0419
1257.27	3.79431
1260.17	42.5231
1263.06	7.88611
1265.95	37.2179
1268.84	47.8994
1271.74	30.6904
1274.63	27.8159
1277.52	16.8118
1280.41	28.6608
1283.31	4.2157
1286.2	21.2886
