Measurement: Raman, 514 nm, unoriented, Raman Data Processed
Mineral: Pyrite
Rruff sample: R050070
Ideal chemistry: Fe^2+^(S_2_)^2-^
Locality: Mina San Jose de Huanzala, Minero de Huallanca District, Department de Huanuco, Peru
Source: Rock Currier
Description: Brass-yellow metallic cube
Measured chemistry: Fe_1.00_S_2.00_
Raman shift (cm-1)	intensity
224.773	0
228.891	235.84
233.006	6.719
237.119	475.727
241.231	124.234
245.34	155.352
249.448	353.223
253.553	492.809
257.657	420.965
261.758	505.523
265.858	67.969
269.956	447.422
274.052	861.059
278.146	522.695
282.237	580.242
286.327	253.914
290.416	291.688
294.502	257.691
298.586	381.777
302.668	124.598
306.749	333.246
310.827	71.379
314.903	64.754
318.978	37.938
323.051	65.57
327.121	80.551
331.19	51.863
335.257	1255.69
339.322	4720.87
343.385	7016.54
347.446	1331.41
351.505	383.047
355.563	293.883
359.618	131.914
363.672	471.934
367.723	728.375
371.773	1898.57
375.821	7037.12
379.866	19915.7
383.91	2008.58
387.952	997.879
391.992	452.969
396.031	595.57
400.067	435.07
404.101	580.059
408.134	678.762
412.165	703.117
416.193	688.5
420.22	535.176
424.245	699.816
428.268	658.773
432.289	528.176
436.309	406.793
440.326	226.777
444.342	440.859
448.355	607.598
452.367	378.188
456.377	508.758
460.385	366.473
464.391	337.109
468.395	250.02
472.398	233.797
476.398	84.52
480.397	211.039
484.394	112.918
488.389	41.074
492.382	3.371
496.373	3.203
500.362	147.922
504.349	24.234
508.335	138.957
512.319	217.391
516.3	132.238
520.28	99.953
524.259	0.668
528.235	64.492
532.209	337.359
536.182	37.398
540.152	264.98
544.121	269.715
548.088	167.355
552.053	401.164
556.017	370.723
559.978	523.727
563.938	477.875
567.895	430.277
571.851	326.031
575.805	474.715
579.758	414.137
583.708	279.078
587.657	189.762
591.603	115.57
595.548	51.934
599.491	263.578
603.432	307.84
607.372	302.441
611.309	574.121
615.245	240.422
619.179	322.77
623.111	159.434
627.041	314.52
630.97	367.781
634.896	70.637
638.821	392.387
642.744	42.203
646.665	246.707
650.584	182.074
654.502	6.02
658.418	121.73
662.331	96.582
666.244	70.492
670.154	104.797
674.062	225.043
677.969	421.461
681.874	114.031
685.777	78.613
689.678	193.156
693.577	213.578
697.475	2.551
701.371	20.059
705.265	214.719
709.157	5.719
713.047	182.66
716.936	231.043
720.823	71.32
724.708	174.457
728.591	160.355
732.472	149.133
736.352	152.344
740.23	122.32
744.106	132.738
747.98	274.172
751.853	197.402
755.723	57.938
759.592	162.863
763.459	138.332
767.325	57.297
771.188	206.867
775.05	61.543
778.91	213.23
782.768	18.051
786.625	128.363
790.479	244.969
794.332	45.941
798.183	130.547
802.033	162.25
805.88	214.969
809.726	157.008
813.57	16.773
817.413	19.43
821.253	106.219
825.092	9.961
828.929	147.371
832.764	114.613
836.598	96.84
840.429	4.758
844.259	111.793
848.088	143.832
851.914	658.234
855.739	342.473
859.562	0.672
863.383	129.699
867.203	69.031
871.02	83.809
874.836	253.414
878.65	83.41
882.463	191.789
886.274	35.504
890.083	153.383
893.89	183.414
897.695	276.496
901.499	237.883
905.301	321.477
909.102	174.262
912.9	195.105
916.697	308.312
920.492	331.703
924.285	408.312
928.077	365.094
931.867	47.102
935.655	125.332
939.442	375.773
943.226	485.41
947.009	446.25
950.791	475.285
954.57	519.531
958.348	338
962.124	273.699
965.899	429.012
969.671	455.547
973.442	345
977.211	434.895
980.979	306.781
984.745	495.848
988.509	495.117
992.271	376.645
996.032	404.699
999.791	512.215
1003.55	532.082
1007.3	660
1011.06	518.543
1014.81	504.777
1018.56	529.734
1022.31	801.109
1026.06	509.133
1029.8	554.891
1033.55	685.398
1037.29	730.398
1041.03	903.156
1044.77	773.453
1048.5	810.75
1052.24	638.926
1055.97	875.152
1059.7	940.855
1063.43	851.113
1067.16	899.242
1070.89	991.457
1074.61	870.078
1078.34	706.621
1082.06	756.965
1085.78	614.832
1089.5	580.359
1093.21	460.965
1096.93	611.941
1100.64	322.359
1104.35	190.07
1108.06	424.98
1111.77	484.051
1115.48	481.121
1119.18	327.004
1122.89	510.402
1126.59	365.66
1130.29	46.918
1133.99	297.078
1137.68	310.938
1141.38	640.281
1145.07	143.152
1148.76	123.891
1152.45	123.344
1156.14	145.938
1159.83	244.531
1163.51	110.344
1167.19	46.172
1170.88	2.18
1174.56	304.012
1178.23	346.395
1181.91	224.23
1185.59	90.875
1189.26	213.938
1192.93	279.52
1196.6	233.035
1200.27	82.523
1203.94	337.402
1207.6	309.637
1211.27	101.074
1214.93	278.086
1218.59	168.398
1222.25	161.316
1225.9	159.781
1229.56	456.805
1233.21	228.465
1236.86	325.754
1240.51	162.762
1244.16	399.484
1247.81	484.941
1251.45	113.062
1255.1	235.801
1258.74	376.281
1262.38	347.211
1266.02	405.605
1269.66	70.16
1273.29	270.32
1276.93	224.629
1280.56	105.25
1284.19	238.105
1287.82	165.996
1291.45	77.242
1295.07	34.406
1298.7	7.016
1302.32	45.031
1305.94	289.574
1309.56	21.27
1313.18	26.219
1316.8	113.508
1320.41	1.129
1324.02	108.531
1327.63	164.238
1331.24	189.805
1334.85	134.527
1338.46	191.914
1342.06	109.902
1345.67	18.98
1349.27	193.848
1352.87	155.246
1356.47	438.148
1360.07	539.184
1363.66	484.781
1367.25	449.125
1370.85	293.012
1374.44	448.133
1378.03	470.691
1381.61	485.234
1385.2	493.828
1388.78	471.094
1392.37	602.98
1395.95	792.418
1399.53	607.371
1403.1	565.438
1406.68	506.922
1410.26	660.184
1413.83	549.082
1417.4	406.168
1420.97	368.078
1424.54	126.113
1428.1	239.859
1431.67	444.176
1435.23	364.66
1438.8	258.145
1442.36	179.414
1445.91	531.754
1449.47	263.223
1453.03	434.082
1456.58	461.32
1460.13	349.426
1463.68	560.441
1467.23	225.305
1470.78	328.801
1474.33	404.477
1477.87	241.719
1481.42	107.738
1484.96	443.414
1488.5	325.18
1492.04	124.266
1495.57	334.031
1499.11	311.168
1502.64	317.695
1506.17	223.184
1509.71	145.402
1513.23	211.73
1516.76	175.617
