Measurement: Raman, 780 nm, unoriented, Raman Data Processed
Mineral: Pyrosmalite-(Fe)
Rruff sample: R060438
Ideal chemistry: Fe^2+^_8_Si_6_O_15_(OH)_10_
Locality: Monchi mine, Brugillos del Cerro, Badoz Province, Spain
Source: Michael Scott
Description: Colorless hexagonal prisms
Measured chemistry: (Fe^2+^_7.44_Mn_0.31_Mg_0.25_)_Σ=8_Si_6.00_O_15_((OH)_8.20_Cl_1.80_)_Σ=10_ ; OH estimated by difference and charge balance
Raman shift (cm-1)	intensity
203.903	0
206.796	0.319519
209.688	3.91826
212.581	1.85932
215.474	4.19251
218.366	4.18215
221.259	0.497955
224.152	4.64469
227.044	1.01782
229.937	2.48315
232.83	4.90529
235.722	4.60536
238.615	4.51639
241.508	0.567093
244.401	5.61243
247.293	7.47829
250.186	5.24188
253.079	5.08182
255.971	5.041
258.864	4.54271
261.757	3.77021
264.649	2.73288
267.542	3.70249
270.435	4.88538
273.328	4.93999
276.22	3.35199
279.113	1.71782
282.006	0.546989
284.898	0.14838
287.791	1.11458
290.684	4.42329
293.576	3.05913
296.469	3.51088
299.362	4.76635
302.255	5.38395
305.147	7.50879
308.04	10.1961
310.933	9.21595
313.825	11.5951
316.718	12.7763
319.611	14.5475
322.503	17.0132
325.396	19.7097
328.289	16.2374
331.182	7.70832
334.074	2.8714
336.967	1.92438
339.86	0.481056
342.752	0.360538
345.645	0.141006
348.538	0.250393
351.43	0.927788
354.323	2.19116
357.216	2.0637
360.108	2.44092
363.001	2.03451
365.894	4.86005
368.787	2.86263
371.679	3.61193
374.572	4.59064
377.465	2.17482
380.357	2.10999
383.25	0.102274
386.143	3.27291
389.036	0.146358
391.928	6.99408
394.821	4.76179
397.714	5.3326
400.606	7.7976
403.499	10.0029
406.392	8.05557
409.284	6.5384
412.177	10.0535
415.07	8.24817
417.962	9.30338
420.855	9.18205
423.748	6.34462
426.641	6.08293
429.533	4.77249
432.426	3.27842
435.319	1.07344
438.211	0.214195
441.104	2.65263
443.997	1.38196
446.889	3.3495
449.782	1.85822
452.675	2.99407
455.567	1.54228
458.46	3.35763
461.353	5.189
464.246	4.91381
467.138	8.99179
470.031	8.78196
472.924	14.0895
475.816	14.0219
478.709	17.8513
481.602	23.1407
484.495	21.0432
487.387	23.0202
490.28	17.5771
493.173	19.0923
496.065	16.2351
498.958	12.6957
501.851	11.7656
504.743	12.8709
507.636	8.01691
510.529	3.36219
513.422	4.68093
516.314	5.35223
519.207	5.03423
522.1	2.43743
524.992	2.16242
527.885	2.24826
530.778	0.921606
533.67	0.977922
536.563	0.856264
539.456	0.711395
542.348	0.202541
545.241	1.37238
548.134	0.891151
551.027	0.806606
553.919	1.98644
556.812	1.33919
559.705	0.280495
562.597	0.127298
565.49	3.87195
568.383	1.25851
571.275	4.04632
574.168	0.077662
577.061	1.66565
579.954	3.66891
582.846	2.55871
585.739	3.5984
588.632	5.14892
591.524	4.14392
594.417	8.63901
597.31	11.5952
600.202	17.8099
603.095	24.8084
605.988	33.3682
608.881	40.8776
611.773	51.7178
614.666	51.6817
617.559	46.8706
620.451	30.3576
623.344	21.4565
626.237	14.1
629.129	9.13089
632.022	5.94611
634.915	7.79119
637.808	3.11952
640.7	5.11849
643.593	3.78682
646.486	7.3724
649.378	3.58449
652.271	5.99433
655.164	2.93334
658.056	2.92731
660.949	4.12055
663.842	5.8539
666.735	4.04811
669.627	3.89523
672.52	2.97747
675.413	0.788498
678.305	1.85935
681.198	2.81334
684.091	2.93356
686.983	2.5187
689.876	1.73405
692.769	0.749882
695.662	0.368574
698.554	0.736687
701.447	0.325422
704.34	1.57143
707.232	1.0132
710.125	1.18035
713.018	1.04946
715.91	2.64085
718.803	0.739161
721.696	2.42847
724.588	4.15094
727.481	2.43911
730.374	4.96059
733.266	2.19638
736.159	1.79743
739.052	2.27002
741.945	0.857086
744.837	3.28053
747.73	3.50997
750.623	2.07753
753.515	2.34225
756.408	0.684553
759.301	1.87408
762.193	1.35506
765.086	0.566946
767.979	1.06689
770.872	3.19428
773.764	0.460543
776.657	4.20772
779.55	3.18352
782.442	1.43739
785.335	1.04767
788.228	1.85302
791.12	1.67944
794.013	0.683537
796.906	2.90261
799.799	0.714983
802.691	3.48169
805.584	3.76332
808.477	4.02933
811.369	0.432663
814.262	1.64426
817.155	3.54229
820.048	3.38189
822.94	2.90464
825.833	2.09988
828.726	0.23365
831.618	1.07182
834.511	0.829149
837.404	2.53034
840.296	1.99993
843.189	0.984785
846.082	1.85104
848.975	2.04154
851.867	2.44795
854.76	1.18052
857.653	2.29504
860.545	2.11788
863.438	1.94921
866.331	1.7838
869.223	1.57629
872.116	3.47724
875.009	3.54933
877.901	3.6373
880.794	3.69468
883.687	4.80881
886.58	1.80643
889.472	3.09574
892.365	0.55097
895.258	2.96351
898.15	0.953775
901.043	2.39039
903.936	0.256549
906.828	0.214512
909.721	1.55722
912.614	0.156002
915.506	3.07375
918.399	2.74964
921.292	1.04633
924.185	0.201348
927.077	1.54332
929.97	1.00689
932.863	2.88296
935.755	1.40658
938.648	0.225587
941.541	2.7878
944.433	0.376193
947.326	1.88134
950.219	2.81245
953.112	2.02077
956.004	2.74427
958.897	2.98095
961.79	2.65613
964.682	0.777264
967.575	3.69741
970.468	2.82445
973.361	0.19601
976.253	2.17308
979.146	1.79986
982.039	0.555993
984.931	1.69297
987.824	2.68778
990.717	1.47809
993.609	3.66444
996.502	3.95945
999.395	4.06621
1002.29	2.46508
1005.18	5.75419
1008.07	4.41883
1010.97	4.61729
1013.86	6.87787
1016.75	9.61558
1019.64	11.9909
1022.54	11.4385
1025.43	11.6147
1028.32	9.83757
1031.21	6.66465
1034.11	5.63969
1037	3.92923
1039.89	6.18373
1042.79	6.28892
1045.68	3.52718
1048.57	1.0756
1051.46	4.49412
1054.36	1.66465
1057.25	3.61929
1060.14	4.7
1063.03	1.25116
1065.93	1.33396
1068.82	2.4126
1071.71	2.11395
1074.61	2.23622
1077.5	1.64283
1080.39	2.91463
1083.28	1.98053
1086.18	0.819731
1089.07	1.22846
1091.96	3.11314
1094.85	3.49988
1097.75	1.80822
1100.64	1.03429
1103.53	3.5134
1106.42	2.13175
1109.32	2.77819
1112.21	0.623359
1115.1	0.411252
1117.99	0.670098
1120.89	2.29737
1123.78	3.30293
1126.67	2.35442
1129.57	3.18722
1132.46	4.93818
1135.35	3.52767
1138.24	2.09048
1141.14	5.34622
1144.03	1.24347
1146.92	0.066028
1149.82	0.791212
1152.71	0.782664
1155.6	3.01635
1158.49	4.49031
1161.39	1.57554
1164.28	0.012343
1167.17	2.59135
1170.06	1.09838
1172.96	0.490509
1175.85	1.25309
1178.74	4.0515
1181.63	1.14296
1184.53	1.84411
1187.42	0.57351
1190.31	0.762609
1193.21	0.771309
1196.1	4.17036
1198.99	2.25555
1201.88	2.23979
1204.78	1.0222
1207.67	3.10201
1210.56	3.90211
1213.45	5.6866
1216.35	2.00811
1219.24	2.19844
1222.13	0.288
1225.03	1.19607
1227.92	1.68827
1230.81	3.08017
1233.7	1.38559
1236.6	1.3597
1239.49	1.05354
1242.38	2.66167
1245.27	3.21344
1248.17	0.761836
1251.06	2.7602
1253.95	3.53785
1256.85	1.99432
1259.74	4.95454
1262.63	2.29743
1265.52	1.96889
1268.42	2.40033
1271.31	1.06435
1274.2	0.544739
1277.09	2.19027
1279.99	1.6628
1282.88	0.712445
