Measurement: Raman, 780 nm, unoriented, Raman Data Processed
Mineral: Pyrochlore
Rruff sample: R080058
Ideal chemistry: Ca_2_Nb_2_O_7_
Locality: Samiresy, Madagascar
Source: Michael Scott
Description: Orange octahedron, amorphous
Raman shift (cm-1)	intensity
101.684	0
105.058	1.56958
108.433	12.3469
111.808	9.52173
115.183	4.30249
118.558	22.8848
121.933	26.6333
125.307	28.0913
128.682	57.488
132.057	91.1599
135.432	111.433
138.807	160.976
142.181	180.389
145.556	221.73
148.931	242.772
152.306	263.955
155.681	271.01
159.055	269.3
162.43	251.987
165.805	241.732
169.18	218.22
172.555	172.569
175.93	151.325
179.304	124.506
182.679	100.686
186.054	88.3682
189.429	63.4958
192.804	68.0403
196.179	49.0657
199.553	42.593
202.928	48.4429
206.303	24.3694
209.678	25.4785
213.053	24.1523
216.427	33.7217
219.802	8.56494
223.177	19.4258
226.552	16.0557
229.927	16.7605
233.302	35.7468
236.676	25.3923
240.051	32.5862
243.426	41.356
246.801	46.6904
250.176	61.5857
253.55	43.1094
256.925	48.075
260.3	48.9321
263.675	37.6711
267.05	27.2319
270.425	25.9177
273.799	1.58203
277.174	14.2307
280.549	13.0225
283.924	4.57397
287.299	8.59766
290.673	2.96045
294.048	2.92603
297.423	4.59741
300.798	1.16235
304.173	10.8118
307.548	7.64185
310.922	29.6084
314.297	6.70044
317.672	6.17261
321.047	20.8398
324.421	13.6006
327.796	20.49
331.171	11.5432
334.546	13.7261
337.921	6.68213
341.296	21.7044
344.67	21.1604
348.045	25.5022
351.42	35.8779
354.795	29.1799
358.17	41.0808
361.545	52.3394
364.919	50.6626
368.294	58.8826
371.669	62.2871
375.044	55.9639
378.419	64.8286
381.793	55.2293
385.168	49.3079
388.543	44.0808
391.918	43.8806
395.293	31.0532
398.668	20.1572
402.042	18.3684
405.417	5.39551
408.792	4.05664
412.167	5.50806
415.542	3.81079
418.916	5.23071
422.291	11.4993
425.666	8.67651
429.041	8.57275
432.416	9.02832
435.791	0.424561
439.165	7.20093
442.54	12.4849
445.915	13.2639
449.29	12.9587
452.665	9.65674
456.039	18.6201
459.414	29.252
462.789	28.6655
466.164	35.8023
469.539	35.5618
472.913	39.6975
476.288	35.8252
479.663	33.9446
483.038	29.7585
486.413	22.1787
489.788	26.97
493.162	25.2566
496.537	10.5222
499.912	19.5977
503.287	12.8176
506.662	14.5676
510.036	0.868896
513.411	15.2847
516.786	12.0242
520.161	5.27515
523.536	0.160889
526.91	13.331
530.285	2.46533
533.66	4.46021
537.035	6.24219
540.41	0.270752
543.785	2.16431
547.159	2.30542
550.534	6.92358
553.909	15.8728
557.284	7.3645
560.659	24.0095
564.034	13.8113
567.408	30.1064
570.783	37.3992
574.158	38.0852
577.533	47.0818
580.908	55.363
584.282	45.6509
587.657	61.9443
591.032	73.6455
594.407	60.6624
597.782	60.8272
601.156	71.1902
604.531	95.49
607.906	86.7769
611.281	99.6543
614.656	100.697
618.03	104.602
621.405	105.147
624.78	105.338
628.155	114.326
631.53	109.689
634.905	114.997
638.279	118.281
641.654	111.445
645.029	100.851
648.404	99.4365
651.779	79.6497
655.154	79.0647
658.528	73.7993
661.903	61.8267
665.278	47.8289
668.653	42.1457
672.028	24.6746
675.402	13.0466
678.777	10.1729
682.152	5.21899
685.527	4.78784
688.902	8.83227
692.277	5.47705
695.651	2.58838
699.026	2.95312
702.401	1.84155
705.776	1.39905
709.151	7.44629
712.525	14.0994
715.9	7.70142
719.275	26.2026
722.65	23.3702
726.025	27.6331
729.399	31.6398
732.774	51.5742
736.149	45.3636
739.524	56.1724
742.899	71.6617
746.274	69.7937
749.648	84.246
753.023	72.2521
756.398	72.0636
759.773	81.1776
763.148	90.2926
766.523	84.8093
769.897	87.2894
773.272	73.0071
776.647	77.3633
780.022	63.1278
783.396	75.3557
786.771	67.6763
790.146	67.2665
793.521	61.3132
796.896	67.8206
800.271	71.6815
803.645	64.501
807.02	65.5203
810.395	57.3341
813.77	63.6578
817.145	59.227
820.519	50.9703
823.894	60.0277
827.269	56.4308
830.644	46.6771
834.019	46.0908
837.394	35.7844
840.768	33.1456
844.143	25.9038
847.518	9.83325
850.893	5.07678
854.268	3.6322
857.643	1.49439
861.017	4.65662
864.392	3.18921
867.767	1.70874
871.142	0.499512
874.517	10.5793
877.891	5.11072
881.266	5.57764
884.641	8.07593
888.016	18.4965
891.391	13.5502
894.765	22.5533
898.14	16.2963
901.515	22.3903
904.89	19.996
908.265	19.243
911.64	7.9978
915.014	17.8671
918.389	18.9736
921.764	18.6117
925.139	18.1683
928.514	26.9674
931.888	23.313
935.263	22.4918
938.638	18.7861
942.013	21.5325
945.388	29.0928
948.763	15.1332
952.137	19.678
955.512	14.2429
958.887	13.9362
962.262	4.16248
965.637	0.476196
969.011	7.40112
972.386	6.42798
975.761	2.11536
979.136	2.14783
982.511	5.74463
985.885	1.94202
989.26	0.731079
992.635	2.13977
996.01	9.76526
999.385	13.4791
1002.76	5.64368
1006.13	6.48108
1009.51	2.12695
1012.88	9.21594
1016.26	13.1575
1019.63	14.5713
1023.01	9.33728
1026.38	18.4145
1029.76	14.0966
1033.13	18.7729
1036.51	16.8311
1039.88	14.3804
1043.26	15.2694
1046.63	14.5444
1050.01	7.32965
1053.38	14.0939
1056.76	15.1959
1060.13	16.4261
1063.51	19.9437
1066.88	10.8512
1070.26	14.4204
1073.63	13.9857
1077.01	15.4449
1080.38	20.5834
1083.76	14.3132
1087.13	18.5652
1090.51	13.9718
1093.88	13.9178
1097.25	15.1057
1100.63	17.4793
1104	17.3613
1107.38	10.1014
1110.75	18.2093
1114.13	15.9635
1117.5	14.6829
1120.88	13.0775
1124.25	11.3968
1127.63	12.3027
1131	13.6292
1134.38	10.9936
1137.75	12.0969
1141.13	16.7823
1144.5	12.1185
1147.88	11.3913
1151.25	10.0407
1154.63	15.395
1158	11.0901
1161.38	0.921875
1164.75	6.17163
1168.13	0.209473
1171.5	2.55688
1174.88	0.142639
1178.25	0.571716
1181.62	2.22864
1185	1.31232
1188.38	8.36768
1191.75	5.70972
1195.12	2.32495
1198.5	2.43603
1201.87	19.7367
1205.25	13.937
1208.62	16.8795
1212	25.7859
1215.37	35.0139
1218.75	31.1312
1222.12	47.9607
1225.5	52.3491
1228.87	63.3215
1232.25	80.4397
1235.62	64.0153
1239	77.6838
1242.37	69.6655
1245.75	69.8133
1249.12	61.8513
1252.5	65.1515
1255.87	69.1871
1259.25	51.5906
1262.62	50.0979
1265.99	46.4
1269.37	33.1683
1272.74	26.8043
1276.12	21.5574
1279.49	18.5278
1282.87	3.90686
1286.24	0
