Measurement: Raman, 514 nm, unoriented, Raman Data Processed
Mineral: Pyrophyllite
Rruff sample: R050108
Ideal chemistry: Al_2_Si_4_O_10_(OH)_2_
Locality: Graves Mountain, Lincoln County, Georgia, USA
Source: Rock Currier
Description: Lamellar radial aggregates
Measured chemistry: (Al_.976_Fe_.020_Mg_.002_Ca_.001_)_2_Si_4_O_10_(OH)_2_
Raman shift (cm-1)	intensity
134.374	0
136.898	186.164
139.421	83.573
141.943	84.335
144.464	128.122
146.984	142.595
149.503	216.018
152.021	83.747
154.538	141.066
157.055	240.572
159.57	201.922
162.084	144.428
164.598	207.189
167.11	170.657
169.622	485.028
172.133	341.475
174.642	238.619
177.151	94.352
179.659	66.657
182.166	68.299
184.672	109.71
187.177	79.494
189.681	401.552
192.184	1056.37
194.686	1815.46
197.187	868.359
199.688	334.354
202.187	45.132
204.685	100.62
207.183	181.354
209.68	177.751
212.175	512.262
214.67	920.938
217.164	719.985
219.657	272.976
222.148	70.22
224.639	66.595
227.129	17.365
229.619	85.969
232.107	39.625
234.594	171.655
237.08	227.788
239.566	293.508
242.05	135.179
244.534	104.239
247.016	119.77
249.498	84.554
251.979	298.787
254.459	244.558
256.938	748.853
259.416	2540.38
261.893	5527.74
264.369	2036.15
266.844	476.393
269.318	263.987
271.792	40.921
274.264	86.892
276.736	294.817
279.206	23.445
281.676	27.585
284.145	390.264
286.613	125.859
289.08	162.592
291.546	288.394
294.011	252.786
296.475	310.492
298.938	69.421
301.401	195.66
303.862	51.772
306.323	246.018
308.782	139.875
311.241	201.104
313.699	346.084
316.155	67.545
318.611	243.75
321.066	179.097
323.521	153.739
325.974	201.75
328.426	7.186
330.877	182.947
333.328	38.558
335.777	116.409
338.226	95.623
340.674	43.508
343.121	87.689
345.567	63.718
348.012	231.658
350.456	31.162
352.899	92.625
355.341	206.073
357.783	0.679
360.223	166.271
362.663	402.688
365.101	361.534
367.539	247.954
369.976	214.272
372.412	61.001
374.847	167.634
377.281	204.094
379.714	229.734
382.147	146.569
384.578	251.896
387.009	136.56
389.438	268.454
391.867	322.619
394.295	327.073
396.722	199.987
399.148	233.217
401.573	226.803
403.997	181.885
406.421	165.921
408.843	141.624
411.265	100.767
413.685	307.719
416.105	4.21
418.524	262.083
420.942	210.82
423.359	178.751
425.775	205.405
428.191	299.748
430.605	233.69
433.019	204.427
435.431	290.707
437.843	287.765
440.254	91.925
442.664	4.404
445.073	88.455
447.481	178.258
449.888	117.721
452.295	48.183
454.7	38.286
457.105	117.471
459.508	169.815
461.911	3.899
464.313	140.459
466.714	159.598
469.115	139.323
471.514	13.48
473.912	285.22
476.31	103.713
478.706	104.006
481.102	292.391
483.497	226.557
485.891	37.901
488.284	197.263
490.676	213.521
493.068	200.327
495.458	235.654
497.848	281.077
500.237	180.29
502.624	203.019
505.011	388.633
507.397	288.318
509.783	305.144
512.167	270.839
514.55	104.585
516.933	285.248
519.315	335.579
521.695	214.872
524.075	344.426
526.454	104.9
528.833	427.262
531.21	280.836
533.586	157.392
535.962	166.542
538.337	378.253
540.71	407.654
543.083	265.852
545.455	45.983
547.827	213.899
550.197	158.222
552.566	303.021
554.935	18.198
557.303	131.69
559.67	214.835
562.036	134.438
564.401	157.895
566.765	23.16
569.128	85.938
571.491	109.173
573.853	95.586
576.213	198.771
578.573	300.911
580.932	390.736
583.291	411.081
585.648	246.931
588.004	297.635
590.36	299.188
592.715	490.763
595.069	166.167
597.422	258.751
599.774	504.51
602.125	265.796
604.475	66.114
606.825	307.927
609.174	318.685
611.522	75.193
613.868	107.149
616.215	168.51
618.56	65.227
620.904	375.477
623.248	126.877
625.591	433.867
627.932	275.18
630.273	44.537
632.614	196.205
634.953	9.35
637.291	126.443
639.629	336.014
641.965	398.395
644.301	205.611
646.636	402.518
648.97	78.957
651.304	12.904
653.636	25.209
655.968	423.645
658.299	460.076
660.628	337.938
662.957	474.422
665.286	432.305
667.613	362.281
669.94	296.037
672.265	96.332
674.59	465.092
676.914	9.303
679.237	263.305
681.559	443.738
683.881	252.82
686.201	188.064
688.521	399.812
690.84	166.67
693.158	438.545
695.475	212.967
697.791	117.492
700.107	325.562
702.421	729.15
704.735	1027.06
707.048	1326.56
709.36	903.227
711.672	676.158
713.982	340.129
716.292	403.299
718.6	167.84
720.908	245.844
723.215	236.809
725.522	178.051
727.827	30.35
730.132	34.873
732.435	211.525
734.738	190.227
737.04	194.25
739.341	338.299
741.642	44.312
743.941	273.035
746.24	74.436
748.538	249.025
750.835	12.07
753.131	180.246
755.427	104.457
757.721	60.42
760.015	277.59
762.308	416.186
764.6	52.975
766.891	459.479
769.181	517.906
771.471	171.412
773.76	117.047
776.047	88.092
778.334	371.381
780.621	462.072
782.906	270.566
785.191	167.312
787.474	79.381
789.757	206.332
792.039	634.447
794.321	391.199
796.601	191.141
798.881	359.41
801.159	166.297
803.437	253.422
805.714	20.033
807.991	393.227
810.266	513.799
812.541	408.947
814.815	498.1
817.088	410.547
819.36	155.328
821.631	244.17
823.902	641.014
826.171	4.002
828.44	570.469
830.708	395.961
832.976	530.633
835.242	188.902
837.508	603.246
839.773	376.051
842.037	133.062
844.3	191.633
846.562	512.232
848.824	104.268
851.084	44.852
853.344	164.186
855.603	94.314
857.861	510.453
860.119	681.215
862.376	119.506
864.631	109.557
866.886	244.402
869.141	427.201
871.394	397.816
873.646	483.268
875.898	429.781
878.149	154.566
880.399	192.803
882.649	350.379
884.897	298.168
887.145	172.584
889.392	280.08
891.638	267.602
893.883	156.119
896.127	679.291
898.371	119.363
900.614	277.109
902.856	225.789
905.097	355.236
907.337	382.316
909.577	131.711
911.816	496.293
914.054	275.67
916.291	258.576
918.527	383.412
920.763	376.568
922.998	228.09
925.232	542.305
927.465	348.896
929.697	340.902
931.929	579.521
934.16	409.68
936.39	301.422
938.619	485.637
940.847	469.006
943.075	72.854
945.301	144.062
947.527	360.764
949.752	450.604
951.977	313.957
954.2	235.959
956.423	14.918
958.645	605.668
960.866	506.494
963.086	137.365
965.306	528.25
967.525	214.09
969.743	293.432
971.96	105.645
974.176	385.773
976.392	324.164
978.607	194.307
980.821	31.182
983.034	386.727
985.246	197.578
987.458	425.463
989.669	478.959
991.879	343.936
994.088	447.691
996.296	532.982
998.504	657.113
1000.71	200.852
1002.92	784.816
1005.12	158.934
1007.33	427.574
1009.53	478.207
1011.73	304.207
1013.93	220.879
1016.14	726.766
1018.34	282.35
1020.54	208.859
1022.74	467.652
1024.93	397.639
1027.13	312.307
1029.33	479.594
1031.52	11.535
1033.72	0
