Measurement: Raman, 785 nm, unoriented, Raman Data Processed
Mineral: Pyrolusite
Rruff sample: R040153
Ideal chemistry: Mn^4+^O_2_
Locality: San Carlos mine, Mapimi, Durango, Mexico
Source: University of Arizona Mineral Museum
Description: Gray massive with small crystals in crevices
Measured chemistry: (Mn_0.97_Zn_0.02_Fe_0.01_)O_2_
Raman shift (cm-1)	intensity
199.685	0
202.578	4.746
205.471	17.472
208.363	8.095
211.256	31.118
214.149	20.184
217.041	33.986
219.934	26.489
222.827	33.459
225.719	28.648
228.612	15.649
231.505	2.531
234.398	14.548
237.29	5.574
240.183	26.527
243.076	2.43
245.968	3.832
248.861	9.903
251.754	1.103
254.646	3.112
257.539	20.199
260.432	11.576
263.325	2.384
266.217	15.241
269.11	3.759
272.003	11.817
274.895	9.88
277.788	11.513
280.681	30.743
283.573	35.807
286.466	30.394
289.359	22.094
292.252	23.31
295.144	26.345
298.037	19.362
300.93	12.462
303.822	5.46
306.715	12.882
309.608	13.561
312.5	2.856
315.393	1.024
318.286	5.62
321.179	19.541
324.071	15.597
326.964	17.467
329.857	6.8
332.749	0.015
335.642	2.362
338.535	6.129
341.427	14.748
344.32	2.914
347.213	19.994
350.106	17.563
352.998	5.862
355.891	1.966
358.784	4.657
361.676	13.81
364.569	14.382
367.462	18.674
370.354	11.397
373.247	8.958
376.14	11.157
379.033	6.233
381.925	17.433
384.818	8.217
387.711	4.574
390.603	23.847
393.496	20.701
396.389	18.298
399.281	18.181
402.174	26.287
405.067	17.525
407.96	18.607
410.852	18.222
413.745	20.875
416.638	5.898
419.53	10.652
422.423	2.201
425.316	7.565
428.208	4.554
431.101	4.26
433.994	5.81
436.887	4.495
439.779	12.7
442.672	9.431
445.565	19.765
448.457	5.293
451.35	2.127
454.243	18.07
457.135	2.927
460.028	21.876
462.921	5.997
465.814	6.869
468.706	9.687
471.599	12.711
474.492	13.039
477.384	19.725
480.277	0.81
483.17	13.494
486.062	14.202
488.955	13.115
491.848	22.329
494.741	10.639
497.633	3.204
500.526	6.195
503.419	3.815
506.311	4.782
509.204	5.854
512.097	7.053
514.99	6.946
517.882	9.836
520.775	0.644
523.668	8.977
526.56	18.589
529.453	26.267
532.346	24.99
535.238	17.5
538.131	12.595
541.024	4.588
543.917	3.243
546.809	15.154
549.702	16.602
552.595	3.314
555.487	0.541
558.38	1.179
561.273	2.103
564.165	9.702
567.058	8.648
569.951	19.701
572.844	17.466
575.736	19.022
578.629	25.073
581.522	19.872
584.414	9.572
587.307	11.358
590.2	15.652
593.092	8.077
595.985	12.287
598.878	5.222
601.771	3.797
604.663	14.327
607.556	3.606
610.449	8.651
613.341	3.886
616.234	9.262
619.127	9.842
622.019	2.216
624.912	6.75
627.805	6.162
630.698	1.392
633.59	6.057
636.483	1.483
639.376	5.461
642.268	12.075
645.161	48.818
648.054	46.483
650.946	71.963
653.839	106.927
656.732	107.797
659.625	131.625
662.517	122.728
665.41	110.591
668.303	101.983
671.195	64.07
674.088	43.154
676.981	31.949
679.873	16.593
682.766	2.118
685.659	4.131
688.552	1.765
691.444	6.367
694.337	1.305
697.23	2.535
700.122	8.371
703.015	13.672
705.908	3.047
708.8	10.751
711.693	6.81
714.586	0.208
717.479	11.765
720.371	5.231
723.264	5.067
726.157	5.274
729.049	7.915
731.942	5.732
734.835	13.082
737.727	31.155
740.62	12.477
743.513	17.112
746.406	24.98
749.298	39.735
752.191	48.018
755.084	43.576
757.976	43.355
760.869	12.376
763.762	24.772
766.654	40.923
769.547	13.622
772.44	14.629
775.333	5.159
778.225	14.213
781.118	10.658
784.011	0.618
786.903	13.499
789.796	15.298
792.689	7.97
795.581	12.173
798.474	3.408
801.367	3.308
804.26	3.895
807.152	5.453
810.045	10.463
812.938	8.271
815.83	4.533
818.723	13.023
821.616	15.143
824.508	7.784
827.401	1.506
830.294	12.357
833.187	17.198
836.079	11.037
838.972	6.678
841.865	7.764
844.757	4.432
847.65	16.409
850.543	5.91
853.435	13.453
856.328	2.455
859.221	1.27
862.114	6.673
865.006	4.717
867.899	0.369
870.792	10.525
873.684	2.225
876.577	12.697
879.47	7.323
882.362	10.851
885.255	11.163
888.148	8.449
891.041	4.798
893.933	17.321
896.826	20.111
899.719	21.893
902.611	2.937
905.504	15.015
908.397	15.114
911.289	27.82
914.182	20.633
917.075	2.492
919.968	5.969
922.86	15.145
925.753	16.294
928.646	4.729
931.538	22.518
934.431	5.592
937.324	15.834
940.216	8.539
943.109	12.704
946.002	5.209
948.894	2.283
951.787	3.517
954.68	10.322
957.573	8.789
960.465	3.299
963.358	10.329
966.251	20.016
969.143	10.544
972.036	7.252
974.929	6.802
977.821	0.151
980.714	21.382
983.607	10.65
986.5	2.357
989.392	11.462
992.285	3.884
995.178	6.665
998.07	21.65
1000.96	2.614
1003.86	13.624
1006.75	11.462
1009.64	0.706
1012.53	8.556
1015.43	9.522
1018.32	16.15
1021.21	5.03
1024.11	2.538
1027	13.415
1029.89	2.681
1032.78	12.079
1035.68	5.811
1038.57	5.837
1041.46	7.646
1044.35	17.482
1047.25	4.629
1050.14	23.528
1053.03	14.207
1055.92	12.918
1058.82	6.322
1061.71	19.82
1064.6	0.367
1067.49	11.526
1070.39	5.902
1073.28	5.212
1076.17	7.607
1079.07	8.126
1081.96	2.85
1084.85	9.736
1087.74	6.116
1090.64	1.813
1093.53	7.219
1096.42	14.171
1099.32	4.119
1102.21	0.67
1105.1	5.673
1107.99	10.663
1110.89	1.082
1113.78	4.276
1116.67	3.952
1119.56	5.205
1122.46	2.181
1125.35	7.06
1128.24	8.281
1131.13	21.518
1134.03	2.157
1136.92	6.198
1139.81	1.327
1142.7	12.73
1145.6	13.682
1148.49	2.34
1151.38	10.778
1154.28	6.929
1157.17	7.591
1160.06	10.077
1162.95	22.942
1165.85	9.574
1168.74	0.095
1171.63	18.398
1174.53	17.557
1177.42	5.795
1180.31	13.773
1183.2	6.625
1186.1	20.113
1188.99	7.141
1191.88	4.534
1194.77	14.324
1197.67	17.638
1200.56	11.41
1203.45	0.546
1206.35	8.631
1209.24	20.597
1212.13	4.405
1215.02	3.002
1217.92	10.07
1220.81	8.242
1223.7	3.116
1226.59	7.624
1229.49	22.17
1232.38	14.624
1235.27	12.145
1238.16	2.367
1241.06	15.097
1243.95	4.563
1246.84	2.03
1249.73	18.045
1252.63	4.154
1255.52	3.927
1258.41	0.435
1261.31	2.89
1264.2	0.79
1267.09	4.255
1269.98	6.364
1272.88	0.604
