Measurement: Raman, 532 nm, unoriented, Raman Data Processed
Mineral: Pyroaurite
Rruff sample: R120011
Ideal chemistry: Mg_6_Fe^3+^_2_CO_3_(OH)_16_4H_2_O
Locality: Scotch Lake quarry, Scotch Lake, Cape Breton County, Nova Scotia, Canada
Source: Donald Doell
Description: Orange hexagonal tablets
Raman shift (cm-1)	intensity
175.345	0
178.237	0.490345
181.13	1.12558
184.023	2.78024
186.916	7.00623
189.808	4.90382
192.701	7.28734
195.594	3.66034
198.486	1.57879
201.379	6.94172
204.272	7.24265
207.164	7.64724
210.057	8.5611
212.95	7.4427
215.843	8.95613
218.735	9.31934
221.628	7.70373
224.521	4.67225
227.413	4.84417
230.306	6.5253
233.199	6.16146
236.091	4.79224
238.984	4.70476
241.877	1.0405
244.769	1.67809
247.662	4.23467
250.555	3.28114
253.448	1.98778
256.34	1.26071
259.233	2.83182
262.126	1.76396
265.018	0.209618
267.911	1.43346
270.804	4.18881
273.697	5.30958
276.589	9.6206
279.482	11.6043
282.375	18.3777
285.267	22.617
288.16	25.4079
291.053	25.4669
293.945	22.5363
296.838	20.1122
299.731	16.929
302.623	12.355
305.516	12.0839
308.409	8.19816
311.302	10.8175
314.194	6.41093
317.087	4.52304
319.98	4.26152
322.872	2.31684
325.765	3.00732
328.658	0.963348
331.55	0.366104
334.443	0.037155
337.336	1.24353
340.229	3.24039
343.121	0.09053
346.014	1.133
348.907	2.83238
351.799	3.38756
354.692	0.377594
357.585	0.818665
360.478	2.5961
363.37	3.0703
366.263	4.25961
369.156	4.77741
372.048	6.20016
374.941	10.6871
377.834	11.2891
380.726	13.1265
383.619	14.4977
386.512	19.6657
389.404	18.3431
392.297	15.5608
395.19	12.6121
398.083	8.57996
400.975	10.7518
403.868	9.09442
406.761	6.93848
409.653	8.11179
412.546	7.14394
415.439	3.44338
418.332	1.99367
421.224	3.11534
424.117	2.58963
427.01	1.15984
429.902	2.93858
432.795	5.4875
435.688	7.87012
438.58	9.3279
441.473	10.2319
444.366	9.68964
447.259	10.5388
450.151	8.78667
453.044	7.9344
455.937	3.9617
458.829	4.6649
461.722	1.47501
464.615	1.59039
467.507	1.67012
470.4	0.421959
473.293	1.22015
476.185	1.15482
479.078	0.106316
481.971	1.19565
484.864	2.40292
487.756	1.56445
490.649	3.00629
493.542	6.13358
496.434	8.3434
499.327	9.08907
502.22	11.9329
505.113	15.6988
508.005	21.1329
510.898	32.0306
513.791	43.5138
516.683	59.0787
519.576	80.9775
522.469	101.899
525.361	126.715
528.254	131.797
531.147	121.472
534.04	97.071
536.932	72.757
539.825	55.9016
542.718	43.0355
545.61	31.1597
548.503	21.8103
551.396	16.3213
554.288	10.8878
557.181	9.24151
560.074	4.10689
562.967	4.92287
565.859	2.16682
568.752	2.50468
571.645	0.081375
574.537	0.750496
577.43	0.021004
580.323	0.137596
583.216	0.097183
586.108	1.23589
589.001	0.22506
591.894	1.98615
594.786	0.230461
597.679	2.6244
600.572	2.30497
603.464	2.76012
606.357	1.93597
609.25	2.05862
612.142	4.31642
615.035	3.72535
617.928	3.42116
620.821	3.26038
623.713	1.73528
626.606	5.96774
629.499	4.80984
632.391	1.75727
635.284	4.69911
638.177	3.24507
641.069	4.5705
643.962	4.44711
646.855	5.41731
649.747	5.00189
652.64	2.86136
655.533	4.27473
658.426	3.94662
661.318	5.4967
664.211	4.49485
667.104	2.73794
669.996	5.46867
672.889	6.20475
675.782	6.43485
678.674	6.39792
681.567	6.57887
684.46	5.61454
687.353	7.24336
690.245	7.06663
693.138	7.17738
696.031	8.09284
698.923	7.09329
701.816	5.28432
704.709	3.50931
707.601	3.93432
710.494	3.43104
713.387	5.59455
716.28	2.43977
719.172	3.78706
722.065	0.684135
724.958	1.60377
727.85	3.51545
730.743	1.93746
733.636	1.76755
736.529	0.540047
739.421	1.69833
742.314	0.409988
745.207	1.81036
748.099	3.37547
750.992	0.390484
753.885	0.576862
756.777	0.134064
759.67	1.32925
762.563	1.30711
765.456	0.291348
768.348	1.05968
771.241	0.629005
774.134	0.464291
777.026	0.076298
779.919	1.51809
782.812	0.068291
785.704	0.456909
788.597	3.46615
791.49	2.08727
794.383	0.964108
797.275	2.3619
800.168	2.78307
803.061	2.00689
805.953	2.42202
808.846	3.73666
811.739	3.22218
814.631	4.18524
817.524	2.93144
820.417	4.71374
823.309	3.69067
826.202	2.65416
829.095	1.2841
831.988	4.0263
834.88	2.46421
837.773	2.65419
840.666	4.69367
843.558	0.463974
846.451	3.3823
849.344	1.82916
852.236	1.98714
855.129	4.40078
858.022	1.97335
860.915	3.36286
863.807	2.77118
866.7	2.33258
869.593	1.30824
872.485	7.10273
875.378	2.10558
878.271	4.63084
881.163	3.02537
884.056	2.21446
886.949	2.88858
889.842	2.89012
892.734	3.27645
895.627	1.45058
898.52	2.01654
901.412	1.51732
904.305	1.38714
907.198	1.56297
910.091	1.76403
912.983	1.57479
915.876	2.3835
918.769	2.55536
921.661	1.54504
924.554	1.21631
927.447	0.1492
930.339	1.23502
933.232	0.736954
936.125	0.596264
939.018	0.931416
941.91	2.03291
944.803	2.70086
947.696	2.41746
950.588	2.38773
953.481	2.7608
956.374	1.82204
959.266	5.01119
962.159	1.67249
965.052	1.30538
967.944	2.07654
970.837	1.58935
973.73	3.72448
976.623	0.11932
979.515	0.148712
982.408	1.60353
985.301	1.11161
988.193	4.04188
991.086	4.35673
993.979	4.53809
996.871	8.09711
999.764	6.21164
1002.66	10.3139
1005.55	6.14706
1008.44	4.93967
1011.34	3.37543
1014.23	5.06004
1017.12	2.21066
1020.01	1.89304
1022.91	0.707161
1025.8	0.53965
1028.69	1.40062
1031.58	1.18919
1034.48	1.37016
1037.37	0.470337
1040.26	2.72406
1043.15	0.815331
1046.05	2.16148
1048.94	7.87693
1051.83	12.6014
1054.73	22.9713
1057.62	36.1006
1060.51	47.9979
1063.4	31.3917
1066.3	11.2741
1069.19	3.88863
1072.08	2.17105
1074.97	1.51749
1077.87	0.044724
1080.76	0.336357
1083.65	0.790146
1086.55	0.126389
1089.44	0.246353
1092.33	0.767899
1095.22	1.16751
1098.12	1.33207
1101.01	0.948322
1103.9	0.078468
1106.79	1.25162
1109.69	0.22052
1112.58	0.918037
1115.47	0.847221
1118.37	0.637344
1121.26	1.1992
1124.15	0.300537
1127.04	3.15136
1129.94	4.18506
1132.83	6.02538
1135.72	6.83659
1138.61	9.90686
1141.51	11.8175
1144.4	14.8312
1147.29	19.2965
1150.18	23.2781
1153.08	26.7352
1155.97	25.7061
1158.86	22.3844
1161.76	17.2934
1164.65	10.7516
1167.54	7.38292
1170.43	8.03287
1173.33	6.29367
1176.22	2.24141
1179.11	3.99804
1182	5.7862
1184.9	3.85642
1187.79	3.95245
1190.68	4.98189
1193.58	4.03871
1196.47	6.39456
1199.36	2.16919
1202.25	3.94966
1205.15	4.15258
1208.04	4.18623
1210.93	3.78567
1213.82	3.08771
1216.72	2.44441
1219.61	1.07616
1222.5	3.00979
1225.39	2.12505
1228.29	1.68642
1231.18	0.418732
1234.07	0.365746
1236.97	0.67498
1239.86	0.27021
1242.75	0.937843
1245.64	3.71146
1248.54	0.585175
1251.43	1.34905
1254.32	3.34332
1257.21	2.65742
1260.11	2.62814
1263	1.56706
1265.89	2.67191
1268.79	1.76198
1271.68	4.05532
1274.57	4.55261
1277.46	4.18091
1280.36	4.44673
1283.25	5.11013
1286.14	4.70975
1289.03	2.00549
1291.93	3.5803
1294.82	1.83125
1297.71	2.51307
1300.61	0.30394
