Measurement: Raman, 780 nm, unoriented, Raman Data Processed
Mineral: Pyrochroite
Rruff sample: R100045
Ideal chemistry: Mn^2+^(OH)_2_
Locality: N'Chwaning II mine, Kalahari Manganese Field, Northern Cape Province, South Africa
Source: Marcus Origlieri
Description: Red platy crystals frozen in matrix
Raman shift (cm-1)	intensity
92.4974	0
95.8722	5.08276
99.2471	3.53604
102.622	1.38405
105.997	4.59865
109.371	3.92424
112.746	0.792969
116.121	3.89153
119.496	4.5734
122.871	4.26666
126.246	3.83566
129.62	3.65018
132.995	3.07712
136.37	2.74827
139.745	2.91497
143.12	2.90294
146.494	0.76963
149.869	2.58408
153.244	4.96395
156.619	5.4298
159.994	6.47794
163.369	8.77569
166.743	6.10848
170.118	6.39403
173.493	4.68597
176.868	3.49815
180.243	5.53346
183.618	3.13016
186.992	4.23247
190.367	5.67726
193.742	0.460327
197.117	2.03569
200.492	2.84615
203.866	3.88099
207.241	3.15486
210.616	0.667885
213.991	1.50971
217.366	0.039284
220.74	2.0256
224.115	1.74513
227.49	2.36729
230.865	0.637169
234.24	0.668526
237.615	3.29546
240.989	2.01259
244.364	1.91007
247.739	3.08855
251.114	1.69435
254.489	2.53141
257.863	2.84492
261.238	4.64826
264.613	2.91158
267.988	2.52013
271.363	4.84283
274.738	4.28442
278.112	2.5842
281.487	6.70011
284.862	5.81345
288.237	5.33366
291.612	3.31176
294.986	3.91226
298.361	4.56065
301.736	4.88557
305.111	2.75009
308.486	2.67252
311.861	3.07952
315.235	1.62525
318.61	4.01403
321.985	1.4878
325.36	3.94177
328.735	2.29942
332.109	8.80637
335.484	10.6814
338.859	8.56369
342.234	12.2928
345.609	13.7586
348.984	14.1963
352.358	10.0682
355.733	12.3217
359.108	9.70475
362.483	9.12704
365.858	5.37409
369.233	6.0016
372.607	3.49013
375.982	1.99598
379.357	1.33002
382.732	0.734818
386.106	0.337395
389.481	1.96707
392.856	2.4838
396.231	1.65953
399.606	0.959602
402.981	1.54886
406.355	0.229759
409.73	0.088234
413.105	0.48362
416.48	0.852234
419.855	0.323639
423.229	1.13274
426.604	0.326172
429.979	2.25118
433.354	0.084702
436.729	3.94936
440.104	2.64603
443.478	2.56891
446.853	0.779564
450.228	1.59383
453.603	2.54797
456.978	2.10381
460.353	2.88051
463.727	4.50298
467.102	5.45836
470.477	3.13856
473.852	2.39587
477.227	0.665085
480.601	2.00953
483.976	2.68511
487.351	1.32938
490.726	0.635391
494.101	1.99998
497.476	0.044365
500.85	0.517799
504.225	0.809723
507.6	1.54767
510.975	0.84935
514.35	0.440346
517.724	0.148552
521.099	1.7522
524.474	1.09
527.849	1.81521
531.224	0.940155
534.598	2.05378
537.973	0.623886
541.348	0.44043
544.723	0.490852
548.098	1.5026
551.472	2.9011
554.847	3.54657
558.222	0.894241
561.597	0.285202
564.972	0.64212
568.347	1.12764
571.721	0.112549
575.096	2.08365
578.471	0.457687
581.846	3.30346
585.221	4.17721
588.596	2.01736
591.97	7.13197
595.345	9.93846
598.72	13.7105
602.095	12.4643
605.47	17.771
608.845	21.9586
612.219	25.0753
615.594	29.7057
618.969	38.1708
622.344	46.6947
625.719	54.2549
629.093	64.9693
632.468	69.2255
635.843	72.6351
639.218	74.65
642.593	67.8425
645.967	60.3003
649.342	52.6908
652.717	42.7559
656.092	31.8078
659.467	27.7167
662.842	22.3734
666.216	15.5033
669.591	13.408
672.966	9.83937
676.341	7.58799
679.716	6.85965
683.091	5.17333
686.465	4.74401
689.84	4.98841
693.215	2.94928
696.59	3.20716
699.965	0.621521
703.339	1.41162
706.714	0.549072
710.089	0.205246
713.464	0.477806
716.839	2.26583
720.213	0.297821
723.588	3.7162
726.963	3.34974
730.338	1.71401
733.713	3.08672
737.087	0.020248
740.462	0.843224
743.837	2.59468
747.212	2.4435
750.587	3.00422
753.962	1.55772
757.336	1.64991
760.711	2.76804
764.086	2.07671
767.461	0.145966
770.836	0.964661
774.211	3.36211
777.585	0.863396
780.96	0.294174
784.335	0.065346
787.71	2.87505
791.085	0.771927
794.459	2.35499
797.834	0.216919
801.209	2.82092
804.584	1.34367
807.959	1.30793
811.333	0.522713
814.708	3.74865
818.083	4.49126
821.458	0.504814
824.833	0.2304
828.208	1.68534
831.582	3.53719
834.957	1.484
838.332	2.7026
841.707	0.144989
845.082	2.27382
848.457	1.98572
851.831	3.45879
855.206	2.07441
858.581	2.25674
861.956	1.7642
865.331	1.07141
868.705	4.4037
872.08	1.05198
875.455	3.28519
878.83	1.53566
882.205	2.50855
885.58	1.70109
888.954	0.052292
892.329	2.45277
895.704	1.50994
899.079	0.636711
902.454	1.22025
905.828	1.35241
909.203	0.314964
912.578	1.77892
915.953	2.08801
919.328	2.80154
922.702	2.28285
926.077	3.83096
929.452	1.33551
932.827	2.1191
936.202	4.27328
939.577	1.91454
942.951	1.37621
946.326	1.91453
949.701	0.967941
953.076	0.575089
956.451	1.83448
959.825	2.10103
963.2	3.96447
966.575	2.00339
969.95	2.07086
973.325	2.80342
976.699	1.18529
980.074	2.54901
983.449	0.518265
986.824	0.756165
990.199	3.48335
993.574	1.62441
996.948	0.952377
1000.32	1.31914
1003.7	3.45876
1007.07	1.89659
1010.45	1.83678
1013.82	2.84219
1017.2	3.27069
1020.57	3.13182
1023.95	3.21095
1027.32	3.4259
1030.7	2.91942
1034.07	0.357727
1037.45	1.44093
1040.82	3.88533
1044.2	2.49193
1047.57	1.37454
1050.94	4.31728
1054.32	0.309464
1057.69	0.244385
1061.07	0.155853
1064.44	2.39244
1067.82	3.16048
1071.19	2.75317
1074.57	0.95459
1077.94	1.71462
1081.32	2.98578
1084.69	3.74889
1088.07	1.70537
1091.44	1.26737
1094.82	3.05466
1098.19	1.80109
1101.57	1.70491
1104.94	2.78912
1108.32	3.36533
1111.69	2.18538
1115.07	0.845978
1118.44	0.852921
1121.82	1.09991
1125.19	1.49876
1128.57	0.868057
1131.94	0.995926
1135.32	1.66641
1138.69	1.70238
1142.07	1.94949
1145.44	0.224152
1148.82	2.56369
1152.19	1.15701
1155.57	4.62137
1158.94	1.03445
1162.31	1.6141
1165.69	2.30449
1169.06	1.93311
1172.44	1.43487
1175.81	3.5067
1179.19	0.627396
1182.56	2.69399
1185.94	0.051819
1189.31	0.3414
1192.69	4.10638
1196.06	4.32776
1199.44	0.632538
1202.81	0.240616
1206.19	1.06483
1209.56	1.8974
1212.94	0.210938
1216.31	0.579651
1219.69	2.34376
1223.06	0.708344
1226.44	4.12355
1229.81	2.97844
1233.19	3.74794
1236.56	3.30312
1239.93	1.97241
1243.31	0.118698
1246.68	2.76614
1250.06	1.31209
1253.43	1.38289
1256.81	2.29298
1260.18	3.10349
1263.56	2.71028
1266.93	2.33569
1270.31	0.496429
1273.68	2.27107
1277.06	2.30844
1280.43	1.92619
1283.81	1.60089
