Measurement: Raman, 532 nm, unoriented, Raman Data Processed
Mineral: Pyrophyllite
Rruff sample: R050108
Ideal chemistry: Al_2_Si_4_O_10_(OH)_2_
Locality: Graves Mountain, Lincoln County, Georgia, USA
Source: Rock Currier
Description: Lamellar radial aggregates
Measured chemistry: (Al_.976_Fe_.020_Mg_.002_Ca_.001_)_2_Si_4_O_10_(OH)_2_
Raman shift (cm-1)	intensity
148.306	0
151.198	0.655273
154.091	15.7227
156.984	15.4863
159.876	19.583
162.769	73.8359
165.662	95.7119
168.554	150.974
171.447	155.445
174.34	112.814
177.233	108.761
180.125	111.681
183.018	119.578
185.911	123.205
188.803	151.776
191.696	180.192
194.589	269.813
197.482	180.384
200.374	89.9082
203.267	32.169
206.16	58.5957
209.052	5.88769
211.945	20.6689
214.838	46.4277
217.73	32.1113
220.623	30.9834
223.516	30.3506
226.409	20.8408
229.301	9.5332
232.194	30.7246
235.087	29.2607
237.979	64.7568
240.872	46.0498
243.765	55.1494
246.657	89.3447
249.55	107.761
252.443	119.409
255.335	153.28
258.228	207.19
261.121	338.443
264.014	280.659
266.906	95.2373
269.799	43.0576
272.692	59.3711
275.584	63.1768
278.477	49.3779
281.37	11.3018
284.262	59.4443
287.155	20.3555
290.048	37.6807
292.941	38.4736
295.833	51.1025
298.726	37.9492
301.619	14.502
304.511	5.90625
307.404	40.9756
310.297	20.8154
313.19	47.4424
316.082	25.8613
318.975	14.0371
321.868	64.9912
324.76	13.3213
327.653	3.45703
330.546	5.1582
333.438	5.3916
336.331	3.37598
339.224	4.63086
342.116	14.3486
345.009	23.959
347.902	38.0049
350.795	75.8252
353.687	59.0352
356.58	47.707
359.473	54.3027
362.365	52.3477
365.258	41.4727
368.151	44.8174
371.043	44.8184
373.936	38.6172
376.829	22.5645
379.721	71.0039
382.614	46.9727
385.507	35.3906
388.4	17.5273
391.292	19.5059
394.185	29.6094
397.078	37.0732
399.97	47.0879
402.863	43.0898
405.756	51.5703
408.649	50.0117
411.541	34.2978
414.434	15.5713
417.327	61.418
420.219	28.8447
423.112	22.2998
426.005	35.209
428.897	32.2275
431.79	45.5039
434.683	24.749
437.575	6.46094
440.468	36.002
443.361	19.7676
446.254	28.5742
449.146	9.13965
452.039	41.417
454.932	16.6543
457.824	6.48047
460.717	31.9033
463.61	76.1387
466.502	100.277
469.395	65.2217
472.288	51.2344
475.181	36.5098
478.073	37.0596
480.966	27.1592
483.859	38.167
486.751	72.8662
489.644	64.5
492.537	37.167
495.43	38.2422
498.322	3.76562
501.215	37.2246
504.108	70.2549
507	67.8457
509.893	33.6055
512.786	38.081
515.678	65.1211
518.571	49.7363
521.464	53.1435
524.356	26.6816
527.249	71.5625
530.142	93.332
533.034	45.2607
535.927	53.0498
538.82	61.1533
541.713	44.8262
544.605	37.2842
547.498	31.9336
550.391	48.4502
553.283	88.7539
556.176	76.7832
559.069	72.9541
561.962	35.9971
564.854	27.8945
567.747	4.92188
570.64	0.851563
573.532	19.4854
576.425	59.9502
579.318	79.2471
582.21	47.2705
585.103	38.623
587.996	13.7773
590.889	35.583
593.781	6.65332
596.674	8.53027
599.567	0.477539
602.459	27.5918
605.352	10.2295
608.245	42.7773
611.137	65.5996
614.03	86.5644
616.923	113.9
619.816	68.1992
622.708	90.7158
625.601	58.4443
628.494	41.9326
631.386	38.207
634.279	62.8721
637.172	37.9268
640.064	21.2266
642.957	31.1973
645.85	59.7041
648.742	99.8242
651.635	75.9199
654.528	49.7139
657.421	31.3379
660.313	38.877
663.206	23.0752
666.099	38.4522
668.991	15.3545
671.884	57.3701
674.777	81.6357
677.669	99.7109
680.562	77.4082
683.455	50.666
686.348	49.9785
689.24	13.7559
692.133	89.6543
695.026	112.564
697.918	127.23
700.811	203.469
703.704	281.673
706.596	260.996
709.489	192.799
712.382	150.26
715.274	123.784
718.167	98.5381
721.06	55.0879
723.953	59.3047
726.845	64.6231
729.738	14.5146
732.631	12.9297
735.523	23.4395
738.416	55.4248
741.309	2.125
744.202	9.58691
747.094	3.89551
749.987	4.83789
752.88	8.56445
755.772	47.667
758.665	1.47949
761.558	2.09277
764.45	22.085
767.343	0.550781
770.236	46.2188
773.129	60.8477
776.021	97.8398
778.914	80.3262
781.807	58.543
784.699	42.0273
787.592	55.5293
790.485	75.7637
793.377	90.1055
796.27	107.826
799.163	99.8555
802.056	80.1309
804.948	130.789
807.841	116.703
810.734	157.875
813.626	144.133
816.519	114.463
819.412	75.6758
822.304	60.8086
825.197	89.0098
828.09	74.834
830.982	102.318
833.875	82.4551
836.768	55.3926
839.661	29.3574
842.553	73.8301
845.446	76.6758
848.339	28.0371
851.231	12.9922
854.124	13.8125
857.017	3.37305
859.909	43.9102
862.802	14.3691
865.695	25.5898
868.588	47.2559
871.48	50.8066
874.373	37.043
877.266	44.0508
880.158	26.8203
883.051	0.189453
885.944	19.418
888.837	8.9082
891.729	43.1035
894.622	35.7109
897.515	51.1094
900.407	43.5723
903.3	68.4356
906.193	65.5371
909.085	57.8691
911.978	90.7695
914.871	81.8184
917.763	87.5527
920.656	84.6816
923.549	68.1387
926.442	16.3965
929.334	40.4297
932.227	49.9844
935.12	20.0195
938.012	74.2715
940.905	31.5566
943.798	35.334
946.69	62.6758
949.583	61.5938
952.476	25.3633
955.369	41.707
958.261	54.9629
961.154	53.9082
964.047	43.4453
966.939	47.3945
969.832	2.12695
972.725	50.8418
975.617	28.4707
978.51	26.7109
981.403	66.4004
984.295	17.877
987.188	9.37109
990.081	0.384766
992.974	54.6055
995.866	20.5566
998.759	80.8789
1001.65	74.1191
1004.54	81.6152
1007.44	49.5254
1010.33	7.05664
1013.22	9.08594
1016.12	24.8867
1019.01	58.5703
1021.9	48.3848
1024.79	1.69141
1027.69	34.4062
1030.58	113.406
1033.47	134.16
1036.36	88.1738
1039.26	73.3535
1042.15	2.39844
1045.04	17.6719
1047.93	32.3262
1050.83	36.8301
1053.72	86.0039
1056.61	66.1602
1059.51	98.4668
1062.4	1.10352
1065.29	71.4688
1068.18	110.262
1071.08	71.7539
1073.97	35.5957
1076.86	0.808594
1079.76	10.1543
1082.65	22.6621
1085.54	59.4688
1088.43	57.6562
1091.33	36.7969
1094.22	21.1777
1097.11	14.209
1100	45.127
1102.9	109.156
1105.79	68.6934
1108.68	67.3574
1111.57	15.8887
1114.47	43.3887
1117.36	16.375
1120.25	19.3535
1123.14	51.7676
1126.04	68.0254
1128.93	2.9082
1131.82	57.9082
1134.72	53.4336
1137.61	57.3809
1140.5	21.6621
1143.39	35.3418
1146.29	22.6543
1149.18	71.3418
1152.07	45.7246
1154.96	65.4531
1157.86	93.6914
1160.75	50.8945
1163.64	41.4785
1166.54	63.2168
1169.43	59.9707
1172.32	14.3105
1175.21	30.832
1178.11	16.2539
1181	13.6152
1183.89	47.6309
1186.78	11.6816
1189.68	55.457
1192.57	23.2871
1195.46	25.2754
1198.36	9.15039
1201.25	49.7051
1204.14	90.1328
1207.03	98.1738
1209.93	63.6172
1212.82	46.8359
1215.71	43.8105
1218.6	17.8066
1221.5	43.8184
1224.39	76.4629
1227.28	72.3281
1230.17	82.0664
1233.07	13.0625
1235.96	24.1484
1238.85	7.93359
1241.75	25.582
1244.64	34.0156
1247.53	9.18555
1250.42	45.8867
1253.32	71.0312
1256.21	78.7852
1259.1	43.7695
1261.99	85.5039
1264.89	46.5332
1267.78	44.6133
1270.67	44.7402
1273.57	17.3184
1276.46	28.1035
1279.35	1.64453
1282.24	17.4727
