Measurement: Raman, 532 nm, unoriented, Raman Data Processed
Mineral: Pyrolusite
Rruff sample: R040153
Ideal chemistry: Mn^4+^O_2_
Locality: San Carlos mine, Mapimi, Durango, Mexico
Source: University of Arizona Mineral Museum
Description: Gray massive with small crystals in crevices
Measured chemistry: (Mn_0.97_Zn_0.02_Fe_0.01_)O_2_
Raman shift (cm-1)	intensity
137.609	0
140.984	32.6555
144.358	2.72494
147.733	16.0609
151.108	9.50566
154.483	79.4822
157.858	21.3443
161.233	25.7868
164.607	19.7678
167.982	38.8338
171.357	52.6682
174.732	34.2623
178.107	14.5905
181.482	11.6772
184.856	23.1278
188.231	23.5711
191.606	39.8473
194.981	29.0706
198.356	28.6867
201.731	22.6856
205.105	33.0575
208.48	34.4419
211.855	37.8845
215.23	52.3074
218.605	74.8698
221.979	79.3088
225.354	57.7846
228.729	23.7386
232.104	4.68652
235.479	15.4795
238.853	14.6582
242.228	13.4476
245.603	6.74722
248.978	1.36386
252.353	10.1809
255.727	0.105286
259.102	6.03987
262.477	10.9733
265.852	31.1438
269.227	28.7979
272.602	22.216
275.976	38.5438
279.351	49.1286
282.726	68.648
286.101	72.3847
289.476	89.6989
292.851	76.3214
296.225	87.9047
299.6	63.2609
302.975	26.1146
306.35	23.3481
309.725	27.0296
313.099	25.7204
316.474	12.8227
319.849	14.7567
323.224	4.09518
326.599	10.9452
329.974	25.3148
333.348	10.2227
336.723	3.46745
340.098	25.7794
343.473	0.305725
346.848	15.3953
350.223	7.16156
353.597	10.154
356.972	0.198624
360.347	29.8566
363.722	20.6341
367.097	3.93578
370.471	17.3213
373.846	17.1766
377.221	24.6875
380.596	20.285
383.971	35.7375
387.346	27.3374
390.72	52.0736
394.095	46.1387
397.47	49.8509
400.845	62.8479
404.219	62.1671
407.594	60.6888
410.969	60.2856
414.344	16.8933
417.719	34.2724
421.094	17.9341
424.469	9.97311
427.843	16.1412
431.218	4.76286
434.593	15.0618
437.968	12.9901
441.343	12.384
444.717	18.494
448.092	15.0464
451.467	13.7085
454.842	4.58099
458.217	3.32523
461.591	5.01843
464.966	7.40991
468.341	12.0546
471.716	21.6522
475.091	3.40343
478.466	11.8493
481.84	9.38632
485.215	2.31908
488.59	29.4927
491.965	18.5789
495.34	24.5687
498.714	30.526
502.089	15.2856
505.464	23.0059
508.839	27.7056
512.214	64.2676
515.589	49.0035
518.963	89.4163
522.338	111.853
525.713	157.295
529.088	229.473
532.463	251.63
535.837	220.686
539.212	148.571
542.587	73.701
545.962	65.616
549.337	41.0382
552.712	42.0737
556.086	32.1946
559.461	1.26431
562.836	14.5053
566.211	16.2156
569.586	14.0866
572.96	19.8822
576.335	0.652283
579.71	1.93924
583.085	3.00198
586.46	5.30847
589.835	4.86761
593.209	13.5398
596.584	12.4869
599.959	19.5067
603.334	9.00375
606.709	37.4564
610.083	35.2301
613.458	60.6145
616.833	47.5036
620.208	48.566
623.583	36.1913
626.958	49.3536
630.332	53.0415
633.707	64.9225
637.082	59.565
640.457	88.1855
643.832	116.685
647.207	146.451
650.581	172.533
653.956	212.441
657.331	258.156
660.706	218.289
664.081	231.308
667.455	223.889
670.83	176.073
674.205	107.129
677.58	101.797
680.955	62.2942
684.33	65.6678
687.704	48.6449
691.079	36.2732
694.454	19.9807
697.829	12.0115
701.204	5.18587
704.578	1.80434
707.953	20.2189
711.328	3.23204
714.703	0.860367
718.078	2.04601
721.452	4.21355
724.827	10.2636
728.202	0.0746
731.577	18.179
734.952	33.8749
738.327	14.7708
741.701	3.80998
745.076	33.5873
748.451	33.7979
751.826	28.1092
755.201	39.2786
758.576	40.9517
761.95	38.2906
765.325	34.2826
768.7	9.09465
772.075	22.2186
775.45	20.7096
778.824	11.3889
782.199	4.07228
785.574	5.48985
788.949	11.8945
792.324	8.23819
795.698	16.1864
799.073	8.93817
802.448	6.21965
805.823	35.5298
809.198	24.3794
812.573	16.5196
815.947	7.55536
819.322	15.0868
822.697	20.5318
826.072	32.1292
829.447	20.9555
832.822	12.0113
836.196	0.59491
839.571	21.7271
842.946	40.2266
846.321	4.74467
849.696	32.0304
853.07	20.1197
856.445	24.3689
859.82	24.0386
863.195	14.2672
866.57	13.982
869.944	18.3981
873.319	18.0394
876.694	34.3846
880.069	23.7688
883.444	28.6169
886.819	7.78805
890.193	32.2224
893.568	11.8612
896.943	12.2886
900.318	6.1786
903.693	5.44397
907.067	10.9999
910.442	15.609
913.817	3.21387
917.192	13.6877
920.567	20.993
923.942	8.99783
927.316	32.9485
930.691	23.8191
934.066	35.0276
937.441	33.302
940.816	17.5455
944.191	17.1366
947.565	27.5473
950.94	5.48773
954.315	21.8826
957.69	6.40819
961.065	2.99222
964.439	10.574
967.814	11.5558
971.189	16.8294
974.564	4.77739
977.939	18.3722
981.313	8.6904
984.688	40.7647
988.063	1.20077
991.438	11.9
994.813	28.678
998.188	18.1998
1001.56	18.1763
1004.94	14.3427
1008.31	6.99872
1011.69	11.8019
1015.06	30.3156
1018.44	7.72697
1021.81	11.3588
1025.19	16.463
1028.56	30.5683
1031.94	17.5678
1035.31	24.7844
1038.68	18.7318
1042.06	14.9248
1045.43	33.0624
1048.81	33.768
1052.18	29.4497
1055.56	36.3598
1058.93	21.109
1062.31	18.3203
1065.68	10.5062
1069.06	29.4733
1072.43	14.0415
1075.81	25.6865
1079.18	6.58124
1082.56	22.0007
1085.93	17.976
1089.31	14.9433
1092.68	17.1429
1096.06	18.0613
1099.43	27.0826
1102.81	10.0942
1106.18	5.98344
1109.56	35.3315
1112.93	6.32954
1116.31	7.09053
1119.68	9.02417
1123.06	40.9637
1126.43	14.5972
1129.81	7.27069
1133.18	13.8338
1136.56	16.6436
1139.93	18.6685
1143.31	3.33818
1146.68	23.9316
1150.05	4.9661
1153.43	1.30499
1156.8	16.1983
1160.18	12.8226
1163.55	10.067
1166.93	17.6604
1170.3	9.05179
1173.68	10.594
1177.05	24.8736
1180.43	10.5654
1183.8	17.5547
1187.18	16.0483
1190.55	39.9868
1193.93	14.4075
1197.3	13.2138
1200.68	12.0971
1204.05	33.7925
1207.43	26.4985
1210.8	12.0234
1214.18	13.637
1217.55	26.1261
1220.93	13.4141
1224.3	6.09187
1227.67	7.1501
1231.05	1.47844
1234.42	4.77574
1237.8	7.75253
1241.17	26.2547
1244.55	17.8561
1247.92	40.987
1251.3	9.53067
1254.67	16.8785
1258.05	17.4567
1261.42	32.85
1264.8	25.0835
1268.17	29.6457
1271.55	10.4766
1274.92	2.44405
1278.3	5.0217
1281.67	33.2683
1285.05	4.94269
1288.42	27.7294
1291.8	19.9417
1295.17	13.8246
1298.55	13.98
1301.92	22.7989
1305.3	11.5744
1308.67	25.0819
1312.05	29.9896
