Measurement: Raman, 780 nm, unoriented, Raman Data Processed
Mineral: Pyrolusite
Rruff sample: R120169
Ideal chemistry: Mn^4+^O_2_
Locality: Unnamed prospect, Tal-Tal, Antofagasta Region, Chile
Source: Bob Jenkins
Description: Aggregate of steel-gray prismatic crystals
Raman shift (cm-1)	intensity
127.84	0
130.733	2.33491
133.626	0.89267
136.518	3.49146
139.411	3.81792
142.304	1.07173
145.197	2.50488
148.089	1.47279
150.982	2.45514
153.875	3.33612
156.767	1.0565
159.66	2.83044
162.553	1.9645
165.446	1.3223
168.338	1.91952
171.231	1.71472
174.124	1.32605
177.016	1.1133
179.909	1.5313
182.802	0.909843
185.694	0.055676
188.587	0.29052
191.48	0.319195
194.373	1.78304
197.265	1.49044
200.158	1.85398
203.051	2.92361
205.943	2.404
208.836	4.64243
211.729	4.97663
214.621	4.94469
217.514	5.00498
220.407	6.03084
223.299	6.35662
226.192	5.64654
229.085	6.25049
231.978	9.40705
234.87	8.89001
237.763	9.22566
240.656	12.6416
243.548	8.10398
246.441	10.7078
249.334	8.31346
252.226	6.30743
255.119	3.36503
258.012	1.68266
260.904	2.38802
263.797	2.00576
266.69	2.43825
269.583	2.29442
272.475	1.00811
275.368	1.20834
278.261	1.2312
281.153	0.345791
284.046	1.44304
286.939	0.240215
289.832	0.599026
292.724	1.11195
295.617	0.059521
298.51	1.39722
301.402	0.516029
304.295	1.67918
307.188	0.391289
310.08	1.44311
312.973	1.89768
315.866	1.02349
318.759	0.837784
321.651	2.16192
324.544	0.395321
327.437	0.189678
330.329	0.718697
333.222	0.926517
336.115	0.089428
339.007	1.18505
341.9	1.41644
344.793	1.05917
347.685	2.04061
350.578	0.428188
353.471	1.10666
356.364	0.198437
359.256	0.822781
362.149	1.0361
365.042	1.22553
367.934	1.34839
370.827	0.374369
373.72	0.941355
376.613	1.11314
379.505	0.733505
382.398	0.549417
385.291	1.19004
388.183	1.81004
391.076	0.323135
393.969	0.65773
396.861	1.2423
399.754	0.848377
402.647	0.924549
405.539	0.914579
408.432	0.980846
411.325	0.887089
414.217	0.253996
417.11	0.264019
420.003	0.131212
422.896	0.052794
425.788	0.215021
428.681	0.072655
431.574	0.602642
434.466	0.642876
437.359	0.913906
440.252	0.481733
443.144	0.613699
446.037	0.895924
448.93	0.278465
451.823	0.825169
454.715	0.347933
457.608	0.595318
460.501	1.00878
463.393	1.32348
466.286	0.797585
469.179	0.428572
472.072	1.39261
474.964	0.763344
477.857	0.935898
480.75	1.87438
483.642	0.88863
486.535	0.046551
489.428	0.541458
492.32	0.870697
495.213	0.407192
498.106	0.701445
500.998	0.122044
503.891	1.03137
506.784	1.15268
509.677	0.890081
512.569	0.36178
515.462	0.705046
518.355	1.08732
521.247	0.712894
524.14	0.983637
527.033	1.70996
529.926	1.63336
532.818	0.629335
535.711	1.76243
538.604	0.799322
541.496	0.590103
544.389	1.08821
547.282	1.55433
550.174	2.70732
553.067	3.63219
555.96	2.46855
558.852	0.794806
561.745	0.513754
564.638	1.27202
567.53	0.706764
570.423	0.452644
573.316	0.417458
576.209	0.427668
579.101	0.475599
581.994	0.754545
584.887	0.079739
587.779	0.613192
590.672	0.677752
593.565	0.056486
596.457	1.14295
599.35	0.917444
602.243	0.442606
605.136	0.897224
608.028	0.692425
610.921	1.45222
613.814	0.719669
616.706	1.46758
619.599	0.699072
622.492	1.00171
625.385	0.374949
628.277	1.29192
631.17	1.45883
634.063	2.59837
636.955	3.55322
639.848	4.94358
642.741	7.65831
645.633	9.00103
648.526	10.9833
651.419	12.7355
654.312	15.1335
657.204	16.366
660.097	16.329
662.99	15.4396
665.882	14.001
668.775	12.1016
671.668	11.2079
674.56	8.71073
677.453	8.75878
680.346	6.75221
683.239	5.1391
686.131	4.28238
689.024	2.67807
691.917	2.56307
694.809	1.77369
697.702	1.75829
700.595	1.13835
703.487	1.24984
706.38	1.33569
709.273	1.23885
712.165	0.005402
715.058	0.882999
717.951	0.156918
720.843	0.195038
723.736	0.451403
726.629	1.16123
729.522	0.078131
732.414	0.093451
735.307	0.036093
738.2	0.082977
741.092	0.243076
743.985	0.581656
746.878	0.645628
749.77	0.640913
752.663	0.493645
755.556	1.97103
758.449	0.542969
761.341	1.15865
764.234	1.0001
767.127	0.359903
770.019	0.163759
772.912	1.0794
775.805	0.548229
778.697	2.40636
781.59	1.78678
784.483	1.82306
787.376	2.09973
790.268	2.79553
793.161	1.43158
796.054	1.511
798.946	0.238182
801.839	1.13917
804.732	1.3576
807.625	1.34807
810.517	1.67259
813.41	1.75914
816.303	1.35909
819.195	2.12518
822.088	1.41553
824.981	2.94635
827.873	1.4351
830.766	2.96413
833.659	2.07783
836.552	3.18047
839.444	3.04069
842.337	2.61071
845.23	2.49205
848.122	2.48022
851.015	3.20183
853.908	2.8908
856.8	2.48726
859.693	2.85769
862.586	2.68116
865.479	2.84528
868.371	3.48052
871.264	2.32653
874.157	2.58646
877.049	2.03117
879.942	2.6795
882.835	2.25199
885.727	2.02124
888.62	1.75613
891.513	0.034241
894.405	1.55613
897.298	1.01687
900.191	0.40576
903.083	0.418373
905.976	0.116398
908.869	0.25378
911.762	0.426546
914.654	0.423433
917.547	0.43169
920.44	0.765005
923.332	0.305811
926.225	0.552664
929.118	0.406502
932.01	0.058001
934.903	0.193268
937.796	0.468134
940.689	2.39704
943.581	1.48184
946.474	0.767681
949.367	0.592188
952.259	0.619801
955.152	0.717596
958.045	0.343164
960.937	0.061354
963.83	0.140072
966.723	0.663782
969.615	1.1898
972.508	0.627958
975.401	1.13912
978.294	1.47651
981.186	0.049433
984.079	0.851355
986.972	0.780046
989.864	0.192841
992.757	2.35084
995.65	1.15992
998.543	0.446468
1001.43	1.05418
1004.33	0.741123
1007.22	0.49649
1010.11	0.035515
1013.01	0.335188
1015.9	0.882038
1018.79	0.533392
1021.68	0.402605
1024.58	0.897663
1027.47	0.441652
1030.36	1.08598
1033.26	0.044495
1036.15	1.19324
1039.04	0.699915
1041.93	2.17033
1044.83	0.993507
1047.72	0.399563
1050.61	1.91467
1053.5	1.14303
1056.4	1.15042
1059.29	1.19135
1062.18	1.29269
1065.08	0.461693
1067.97	0.751177
1070.86	1.12959
1073.75	0.745354
1076.64	0.867737
1079.54	1.37016
1082.43	0.423218
1085.32	1.10344
1088.22	0.328852
1091.11	0.005735
1094	1.00323
1096.89	0.589178
1099.79	0.588264
1102.68	1.1898
1105.57	0.799995
1108.46	1.36186
1111.36	1.1399
1114.25	1.11389
1117.14	0.968794
1120.04	0.421694
1122.93	0.308495
1125.82	0.271915
1128.71	0.609533
1131.61	0.987795
1134.5	1.6127
1137.39	1.23008
1140.29	2.43545
1143.18	1.04518
1146.07	2.10433
1148.96	1.40204
1151.86	0.340546
1154.75	0.984308
1157.64	1.10482
1160.53	0.321384
1163.43	1.52882
1166.32	0.831314
1169.21	0.834694
1172.1	1.73918
1175	1.53631
1177.89	1.39315
1180.78	1.26984
1183.67	0.242176
1186.57	1.16753
1189.46	1.71548
1192.35	0.870331
1195.25	1.99117
1198.14	1.18531
1201.03	1.44383
1203.92	0.910862
1206.82	1.39264
1209.71	1.14612
1212.6	0.238804
1215.49	0.457195
1218.39	0.758661
1221.28	1.21817
1224.17	1.1566
1227.07	0.289137
1229.96	0.999329
1232.85	0.348492
1235.74	0.84009
1238.64	1.05492
1241.53	1.44643
1244.42	0.926737
1247.32	1.16702
1250.21	1.67835
1253.1	0.525084
1255.99	0.217512
1258.88	0.503023
1261.78	1.72104
1264.67	0.205362
1267.56	1.30065
1270.46	1.43715
1273.35	1.25637
1276.24	0.684586
1279.13	1.42695
1282.03	0.504564
