Measurement: Raman, 780 nm, unoriented, Raman Data Processed
Mineral: Pyrope
Rruff sample: R070637
Ideal chemistry: Mg_3_Al_2_(SiO_4_)_3_
Locality: Dora Maira Massif, Piedmont, Italy
Source: Jibamitra Ganguly
Description: Colorless massive, associated with muscovite, quartz and small black rutile
Raman shift (cm-1)	intensity
140.255	0
143.147	20.8691
146.04	115.873
148.933	233.178
151.825	330.266
154.718	282.917
157.611	193.118
160.503	117.104
163.396	152.789
166.289	67.3257
169.181	40.7893
172.074	49.6013
174.967	3.7544
177.859	12.6877
180.752	36.3202
183.645	10.5067
186.538	41.2778
189.43	39.4574
192.323	76.8491
195.216	84.1505
198.108	163.112
201.001	239.27
203.894	399.699
206.786	661.52
209.679	1083.14
212.572	1050.38
215.465	601.749
218.357	234.165
221.25	90.0306
224.143	56.5575
227.035	19.9291
229.928	3.22351
232.821	0.605225
235.714	7.91797
238.606	17.5588
241.499	11.1001
244.392	43.2203
247.284	17.3252
250.177	3.0044
253.07	27.0454
255.962	18.7092
258.855	68.1088
261.748	36.2148
264.64	79.4907
267.533	105.971
270.426	110.89
273.319	140.253
276.211	175.8
279.104	211.234
281.997	215.788
284.889	276.603
287.782	291.756
290.675	276.233
293.567	290.166
296.46	254.306
299.353	248.249
302.246	277.347
305.138	263.027
308.031	320.44
310.924	367.86
313.816	463.673
316.709	524.358
319.602	649.96
322.495	719.271
325.387	658.012
328.28	674.395
331.173	792.571
334.065	866.053
336.958	1090.83
339.851	1346.61
342.743	1562.38
345.636	1783.54
348.529	1987.06
351.421	2227.45
354.314	2535.7
357.207	2981.41
360.1	3546.08
362.992	4142.66
365.885	4309.52
368.778	3502.42
371.67	2496.22
374.563	1824.65
377.456	1370.2
380.349	1149.57
383.241	950.146
386.134	534.526
389.027	266.888
391.919	131
394.812	69.3691
397.705	11.9951
400.597	30.7845
403.49	9.66968
406.383	15.6634
409.276	48.8264
412.168	32.7406
415.061	6.78711
417.954	18.7621
420.846	29.24
423.739	90.9196
426.632	156.543
429.524	239.276
432.417	310.208
435.31	441.613
438.202	558.441
441.095	680.94
443.988	825.506
446.881	912.999
449.773	924.469
452.666	895.377
455.559	814.322
458.451	734.714
461.344	642.675
464.237	609.966
467.13	541.491
470.022	506.505
472.915	446.736
475.808	400.223
478.7	400.656
481.593	335.291
484.486	303.707
487.378	314.046
490.271	328.134
493.164	346.734
496.057	242.987
498.949	153.705
501.842	115.442
504.735	122.939
507.627	140.876
510.52	291.627
513.413	271.939
516.305	183.784
519.198	115.763
522.091	80.5056
524.984	76.0323
527.876	47.3877
530.769	18.4298
533.662	13.1621
536.554	18.9186
539.447	12.2505
542.34	76.7963
545.232	84.254
548.125	223.017
551.018	402.434
553.91	691.921
556.803	1190.84
559.696	1844.79
562.589	2468.32
565.481	2339.36
568.374	1490.72
571.267	817.917
574.159	477.45
577.052	242.837
579.945	170.307
582.837	107.82
585.73	57.7168
588.623	11.8658
591.516	12.5278
594.408	11.1091
597.301	12.587
600.194	7.85327
603.086	18.2002
605.979	6.25415
608.872	19.2965
611.764	35.5221
614.657	22.7435
617.55	6.41138
620.443	1.06287
623.335	15.7456
626.228	62.5734
629.121	58.5536
632.013	62.5199
634.906	77.7222
637.799	134.491
640.692	182.497
643.584	334.349
646.477	634.823
649.37	819.859
652.262	741.862
655.155	492.382
658.048	344.86
660.94	290.036
663.833	308.406
666.726	284.548
669.619	340.552
672.511	361.173
675.404	404.703
678.297	506.937
681.189	553.45
684.082	644.746
686.975	777.309
689.867	850.432
692.76	956.141
695.653	1101.72
698.545	1162.24
701.438	1270.87
704.331	1328.38
707.224	1407.85
710.116	1448.05
713.009	1425.8
715.902	1326.35
718.794	1280.99
721.687	1185.78
724.58	1067.55
727.472	972.639
730.365	906.587
733.258	818.291
736.151	712.33
739.043	643.43
741.936	608.469
744.829	499.576
747.721	428.044
750.614	335.56
753.507	310.563
756.399	209.242
759.292	174.122
762.185	137.635
765.078	94.4531
767.97	88.0203
770.863	25.1746
773.756	13.7179
776.648	11.2041
779.541	11.0975
782.434	3.01123
785.327	38.0962
788.219	35.535
791.112	37.7133
794.005	31.979
796.897	20.626
799.79	20.8248
802.683	1.87708
805.575	33.7546
808.468	51.8331
811.361	65.1125
814.254	107.629
817.146	119.79
820.039	126.6
822.932	164.944
825.824	194.984
828.717	233.3
831.61	266.11
834.502	282.814
837.395	319.45
840.288	323.624
843.181	391.271
846.073	455.357
848.966	487.12
851.859	565.754
854.751	652.086
857.644	814.225
860.537	1039.58
863.429	1392.62
866.322	1857.4
869.215	2243.4
872.107	1996.4
875	1417.49
877.893	982.133
880.786	703.378
883.678	538.555
886.571	465.959
889.464	411.388
892.356	404.532
895.249	391.824
898.142	429.83
901.034	492.055
903.927	546.037
906.82	646.863
909.713	793.929
912.605	1064.65
915.498	1610.51
918.391	2633.64
921.283	4366.47
924.176	6607.97
927.069	8644.29
929.962	7891.61
932.854	5302.83
935.747	3170.17
938.64	1929.27
941.532	1259.34
944.425	814.181
947.318	496.803
950.21	315.716
953.103	211.26
955.996	112.907
958.889	59.7946
961.781	12.1773
964.674	21.4388
967.567	10.7653
970.459	27.7582
973.352	20.8766
976.245	22.5914
979.137	16.276
982.03	20.1524
984.923	15.6237
987.816	26.0115
990.708	18.6791
993.601	45.6325
996.494	68.2534
999.386	55.8817
1002.28	56.4271
1005.17	64.1834
1008.06	47.507
1010.96	85.2484
1013.85	67.1693
1016.74	51.5349
1019.63	46.458
1022.53	56.1854
1025.42	57.9799
1028.31	52.0643
1031.21	53.8657
1034.1	27.8533
1036.99	47.882
1039.88	58.776
1042.78	61.8589
1045.67	77.6906
1048.56	90.3936
1051.45	119.784
1054.35	171.24
1057.24	276.905
1060.13	395.576
1063.03	480.013
1065.92	477.32
1068.81	363.894
1071.7	225.859
1074.6	154.487
1077.49	105.519
1080.38	61.5812
1083.28	35.0131
1086.17	36.7823
1089.06	24.4737
1091.95	12.9733
1094.85	6.88864
1097.74	18.8172
1100.63	9.97693
1103.52	2.77655
1106.42	4.91998
1109.31	4.6879
1112.2	26.5139
1115.09	24.3713
1117.99	10.2081
1120.88	2.2793
1123.77	7.03876
1126.66	3.34802
1129.56	8.99707
1132.45	4.01569
1135.34	20.2958
1138.24	9.01468
1141.13	10.0331
1144.02	17.9533
1146.91	24.2721
1149.81	10.5707
1152.7	2.07086
1155.59	9.96158
1158.48	16.549
1161.38	5.08389
1164.27	10.7492
1167.16	13.6274
1170.06	8.6088
1172.95	22.3465
1175.84	12.0993
1178.73	35.5204
1181.63	11.1728
1184.52	18.8846
1187.41	24.8516
1190.3	3.53339
1193.2	13.1099
1196.09	31.6395
1198.98	22.6513
1201.88	21.4383
1204.77	31.698
1207.66	22.7049
1210.55	46.2985
1213.45	37.0883
1216.34	40.0414
1219.23	37.8593
1222.12	64.4634
1225.02	77.2305
1227.91	118.204
1230.8	172.656
1233.69	229.799
1236.59	338.079
1239.48	403.311
1242.37	317.808
1245.27	227.984
1248.16	141.336
1251.05	99.3168
1253.94	64.1803
1256.84	32.9871
1259.73	37.6875
1262.62	15.2707
1265.52	6.17401
1268.41	24.7005
1271.3	0.658142
1274.19	1.24255
1277.09	9.92087
1279.98	19.1534
1282.87	0.051941
