Measurement: Raman, 532 nm, unoriented, Raman Data Processed
Mineral: Pyrochlore
Rruff sample: R070742
Ideal chemistry: Ca_2_Nb_2_O_7_
Locality: Alakurtti pegmatite, North Karelia, Murmanskaja Oblast', Northern Region, Russia
Source: Michael Scott
Description: Vitreous brown metamict fragments
Raman shift (cm-1)	intensity
204.016	0
206.908	45.1992
209.801	71.5947
212.694	44.0918
215.586	19.4023
218.479	36.2647
221.372	49.168
224.264	94.7432
227.157	265.666
230.05	191.506
232.943	232.927
235.835	314.603
238.728	251.51
241.621	328.684
244.513	324.486
247.406	320.322
250.299	364.247
253.191	346.187
256.084	342.971
258.977	392.859
261.87	404.312
264.762	364.055
267.655	414.819
270.548	372.024
273.44	303.285
276.333	317.627
279.226	197.595
282.118	311.17
285.011	183.335
287.904	236.372
290.796	120.923
293.689	172.356
296.582	113.911
299.475	69.8994
302.367	33.5947
305.26	77.9394
308.153	65.9356
311.045	63.7861
313.938	107.403
316.831	42.8838
319.724	13.6221
322.616	108.028
325.509	42.709
328.402	115.952
331.294	61.4111
334.187	105.163
337.08	66.7969
339.972	95.1406
342.865	8.27734
345.758	19.0186
348.651	25.1641
351.543	123.904
354.436	6.60449
357.329	3.84668
360.221	43.707
363.114	35.4551
366.007	34.0645
368.899	77.9902
371.792	5.16406
374.685	44.5547
377.577	36.1103
380.47	83.1318
383.363	80.3291
386.256	77.6631
389.148	34.2363
392.041	43.4756
394.934	57.1728
397.826	77.5137
400.719	96.7295
403.612	78.624
406.505	12.1592
409.397	20.627
412.29	85.2734
415.183	46.8857
418.075	116.244
420.968	121.878
423.861	44.2305
426.753	80.1836
429.646	116.812
432.539	157.294
435.432	44.582
438.324	88.1152
441.217	91.543
444.11	164.528
447.002	151.639
449.895	104.484
452.788	75.7314
455.68	115.058
458.573	102.155
461.466	135.091
464.358	126.346
467.251	125.402
470.144	147.69
473.037	134.261
475.929	123.388
478.822	126.177
481.715	132.42
484.607	117.053
487.5	86.1587
490.393	90.4522
493.286	140.44
496.178	81.4961
499.071	61.2349
501.964	144.768
504.856	134.465
507.749	48.4409
510.642	59.6011
513.534	87.7314
516.427	53.73
519.32	30.4863
522.212	46.2461
525.105	15.4648
527.998	24.6484
530.891	27.6416
533.783	3.61279
536.676	4.86084
539.569	14.6372
542.461	0.312988
545.354	17.7891
548.247	3.02246
551.139	3.56836
554.032	74.3369
556.925	75.5879
559.818	61.6963
562.71	63.1992
565.603	86.3164
568.496	132.806
571.388	66.5547
574.281	121.379
577.174	105.925
580.067	62.7217
582.959	116.624
585.852	117.148
588.745	269.256
591.637	189.247
594.53	227.96
597.423	88.3731
600.315	157.096
603.208	154.823
606.101	139.384
608.994	134.553
611.886	196.391
614.779	289.262
617.672	261.32
620.564	215.977
623.457	259.673
626.35	230.045
629.242	179.981
632.135	270.108
635.028	269.302
637.92	292.5
640.813	290.681
643.706	267.896
646.599	202.378
649.491	217.514
652.384	377
655.277	192.144
658.169	271.894
661.062	231.364
663.955	240.13
666.847	174.859
669.74	144.908
672.633	164.167
675.525	75.9004
678.418	109.482
681.311	74.3027
684.204	1.63867
687.096	17.2803
689.989	18.6094
692.882	16.2305
695.774	53.3555
698.667	77.9414
701.56	21.9727
704.452	16.5176
707.345	36.8633
710.238	53.4424
713.131	37.1318
716.023	43.4033
718.916	67.6016
721.809	98.7715
724.701	45.835
727.594	92.5693
730.487	130.391
733.38	177.766
736.272	174.086
739.165	218.583
742.058	312.414
744.95	328.544
747.843	425.989
750.736	394.288
753.628	398.911
756.521	504.07
759.414	585.497
762.307	585.653
765.199	728.86
768.092	729.443
770.985	770.115
773.877	761.909
776.77	780.972
779.663	839.351
782.555	837.019
785.448	801.816
788.341	839.023
791.234	881.058
794.126	837.107
797.019	818.281
799.912	845.308
802.804	862.852
805.697	761.957
808.59	719.836
811.482	706.349
814.375	622.927
817.268	626.248
820.16	519.598
823.053	596.192
825.946	407.114
828.839	391.932
831.731	375.6
834.624	298.968
837.517	246.754
840.409	134.318
843.302	75.5342
846.195	89.8164
849.087	56.8066
851.98	0.47168
854.873	24.3384
857.766	92.3408
860.658	22.4253
863.551	27.249
866.444	28.2295
869.336	4.41943
872.229	20.7358
875.122	11.2671
878.014	83.0034
880.907	51.7134
883.8	84.9565
886.693	58.5879
889.585	27.7344
892.478	82.1934
895.371	148.312
898.263	164.235
901.156	144.649
904.049	179.919
906.942	212.232
909.834	203.452
912.727	227.094
915.62	224.952
918.512	199.949
921.405	141.74
924.298	200.314
927.19	90.292
930.083	47.9131
932.976	123.151
935.869	50.3096
938.761	82.5644
941.654	58.8555
944.547	27.105
947.439	7.75635
950.332	2.71728
953.225	30.1636
956.117	17.1694
959.01	15.6899
961.903	9.47803
964.795	7.57617
967.688	73.5955
970.581	105.768
973.474	35.6272
976.366	94.2515
979.259	79.5691
982.152	80.9148
985.044	125.212
987.937	76.2378
990.83	136.384
993.722	154.731
996.615	154.931
999.508	161.101
1002.4	184.754
1005.29	201.095
1008.19	182.837
1011.08	193.83
1013.97	149.434
1016.86	160.335
1019.76	167.341
1022.65	107.407
1025.54	136.757
1028.43	128.523
1031.33	118.694
1034.22	163.833
1037.11	125.846
1040.01	118.418
1042.9	83.6025
1045.79	141.412
1048.68	52.843
1051.58	65.7375
1054.47	63.6829
1057.36	52.6274
1060.26	62.3801
1063.15	64.8308
1066.04	35.2605
1068.93	45.9919
1071.83	43.6343
1074.72	56.178
1077.61	43.1909
1080.5	62.7639
1083.4	31.7761
1086.29	13.6882
1089.18	14.7683
1092.07	32.5176
1094.97	4.6394
1097.86	15.1809
1100.75	4.81177
1103.64	7.58814
1106.54	28.8577
1109.43	23.6213
1112.32	55.2266
1115.22	32.9849
1118.11	39.1909
1121	45.6951
1123.89	69.0144
1126.79	32.4512
1129.68	13.3648
1132.57	62.0352
1135.46	27.2546
1138.36	47.8323
1141.25	5.44922
1144.14	6.28418
1147.04	27.8767
1149.93	41.4739
1152.82	60.8809
1155.71	24.5273
1158.61	19.074
1161.5	55.677
1164.39	8.15747
1167.28	19.7556
1170.18	6.09936
1173.07	24.4436
1175.96	18.1221
1178.86	12.1162
1181.75	52.8655
1184.64	13.1089
1187.53	43.8384
1190.43	9.94043
1193.32	73.0234
1196.21	60.6731
1199.1	17.592
1202	69.3215
1204.89	49.0115
1207.78	54.1516
1210.67	37.7812
1213.57	14.3367
1216.46	74.2981
1219.35	47.5022
1222.25	24.8394
1225.14	10.3721
1228.03	15.739
1230.92	38.5342
1233.82	40.1645
1236.71	37.9072
1239.6	41.8674
1242.49	13.717
1245.39	57.561
1248.28	12.6394
1251.17	43.9966
1254.07	50.8911
1256.96	34.0925
1259.85	51.8772
1262.74	37.2427
1265.64	42.2112
1268.53	0
