Measurement: Raman, 532 nm, unoriented, Raman Data Processed
Mineral: Pyrochlore
Rruff sample: R080058
Ideal chemistry: Ca_2_Nb_2_O_7_
Locality: Samiresy, Madagascar
Source: Michael Scott
Description: Orange octahedron, amorphous
Raman shift (cm-1)	intensity
141.047	0
144.422	3.14661
147.797	7.49011
151.172	13.3081
154.547	21.3887
157.921	35.1904
161.296	35.8749
164.671	40.2242
168.046	41.2511
171.421	45.7814
174.796	50.4274
178.17	54.4749
181.545	42.4379
184.92	44.5726
188.295	48.5486
191.67	34.5499
195.044	34.0418
198.419	41.5691
201.794	25.4943
205.169	21.0831
208.544	18.9951
211.918	28.4497
215.293	34.9567
218.668	36.5981
222.043	26.4814
225.418	24.5752
228.792	27.2544
232.167	38.0753
235.542	31.0439
238.917	48.273
242.292	54.0055
245.667	58.3021
249.041	62.307
252.416	62.8707
255.791	54.8665
259.166	46.7649
262.541	38.846
265.916	40.4815
269.29	35.3486
272.665	30.0438
276.04	34.1823
279.415	28.3309
282.79	31.1178
286.164	14.7477
289.539	19.1361
292.914	9.5531
296.289	2.66504
299.664	5.63916
303.038	9.01245
306.413	6.40796
309.788	9.47827
313.163	4.19995
316.538	6.60181
319.913	5.86365
323.287	1.3114
326.662	4.20544
330.037	3.14966
333.412	5.84729
336.787	0.683105
340.161	4.00842
343.536	1.00061
346.911	3.64307
350.286	8.68701
353.661	10.8038
357.036	13.4602
360.41	1.55969
363.785	13.3663
367.16	9.1051
370.535	5.66748
373.91	14.676
377.284	9.5813
380.659	23.5978
384.034	23.5129
387.409	11.08
390.784	21.6025
394.159	7.83911
397.533	7.77222
400.908	12.1112
404.283	10.136
407.658	10.4097
411.033	10.8834
414.408	11.3188
417.782	13.695
421.157	10.464
424.532	8.4419
427.907	10.1675
431.282	15.1372
434.656	2.54932
438.031	20.1797
441.406	9.20105
444.781	16.9613
448.156	12.8782
451.531	11.8874
454.905	20.3566
458.28	20.9248
461.655	16.1359
465.03	10.9324
468.404	23.7291
471.779	25.8633
475.154	16.7637
478.529	24.5647
481.904	19.012
485.279	19.8409
488.653	7.96179
492.028	5.76856
495.403	15.9382
498.778	17.5281
502.153	2.53613
505.527	2.44763
508.902	2.30298
512.277	4.73511
515.652	4.36279
519.027	4.36035
522.402	3.40344
525.776	2.75122
529.151	7.34582
532.526	1.68274
535.901	8.53076
539.276	1.40039
542.65	7.36939
546.025	4.46533
549.4	12.7341
552.775	24.9934
556.15	24.6838
559.525	25.8777
562.899	21.7537
566.274	23.6235
569.649	29.0048
573.024	21.996
576.399	30.9783
579.774	37.178
583.148	34.9037
586.523	41.7091
589.898	37.5967
593.273	40.85
596.648	43.5597
600.022	42.568
603.397	47.2401
606.772	57.3839
610.147	50.8879
613.522	44.0414
616.896	52.6522
620.271	47.3534
623.646	38.9864
627.021	43.8497
630.396	49.5474
633.771	37.2134
637.145	54.623
640.52	41.8779
643.895	30.4008
647.27	27.9077
650.645	32.3296
654.019	24.3613
657.394	25.7051
660.769	25.8273
664.144	27.2444
667.519	21.5344
670.894	12.4304
674.268	18.078
677.643	6.40845
681.018	3.76245
684.393	2.72131
687.768	5.08496
691.143	0.080444
694.517	1.12378
697.892	2.89331
701.267	10.4808
704.642	17.2791
708.016	0.481445
711.391	17.7264
714.766	21.7672
718.141	26.0311
721.516	39.2992
724.891	45.2015
728.265	45.0525
731.64	55.5118
735.015	60.3295
738.39	57.6652
741.765	73.729
745.139	80.5596
748.514	74.04
751.889	85.7538
755.264	89.9215
758.639	100.609
762.014	107.46
765.388	110.219
768.763	113.833
772.138	107.405
775.513	112.793
778.888	115.403
782.263	111.643
785.637	124.286
789.012	123.297
792.387	125.663
795.762	117.639
799.137	113.581
802.511	109.473
805.886	118.163
809.261	105.675
812.636	105.133
816.011	102.911
819.385	90.4045
822.76	91.828
826.135	77.7526
829.51	60.7812
832.885	53.7056
836.26	41.6829
839.634	33.7111
843.009	29.6177
846.384	12.0642
849.759	6.89832
853.134	6.36853
856.509	1.00452
859.883	4.86231
863.258	1.36499
866.633	0.876709
870.008	0.083618
873.383	6.06445
876.757	19.4074
880.132	17.1478
883.507	22.7061
886.882	18.4517
890.257	19.0173
893.631	31.0969
897.006	27.7521
900.381	38.4174
903.756	20.6914
907.131	29.6411
910.506	25.3662
913.88	29.623
917.255	23.9961
920.63	25.2564
924.005	24.5035
927.38	37.4136
930.755	34.1084
934.129	24.8549
937.504	32.5416
940.879	26.5071
944.254	24.639
947.629	20.9928
951.003	19.0061
954.378	22.7406
957.753	16.3732
961.128	9.25952
964.503	7.78516
967.877	4.58362
971.252	7.64185
974.627	5.04309
978.002	3.40906
981.377	5.47559
984.751	10.6623
988.126	9.2771
991.501	11.75
994.876	6.53186
998.251	9.84045
1001.63	16.4928
1005	2.04639
1008.38	14.8188
1011.75	17.5179
1015.12	24.1836
1018.5	17.2915
1021.88	19.057
1025.25	16.1467
1028.62	21.8484
1032	11.0958
1035.37	19.9403
1038.75	11.029
1042.12	11.3088
1045.5	6.75476
1048.87	9.74402
1052.25	7.05811
1055.62	1.86328
1059	6.35437
1062.37	12.3949
1065.75	8.53223
1069.12	2.03845
1072.5	2.70203
1075.87	9.19238
1079.25	14.7367
1082.62	8.28174
1086	14.3281
1089.37	7.75281
1092.75	1.37952
1096.12	3.62256
1099.49	7.0697
1102.87	6.7395
1106.24	6.23242
1109.62	3.77759
1112.99	3.04321
1116.37	6.17041
1119.74	0.704346
1123.12	1.26807
1126.49	1.54041
1129.87	3.51709
1133.24	9.67163
1136.62	0.479004
1139.99	10.1248
1143.37	10.994
1146.74	3.21155
1150.12	6.15308
1153.49	10.749
1156.87	22.7368
1160.24	4.8418
1163.62	15.6427
1166.99	13.3486
1170.37	7.90857
1173.74	14.2137
1177.12	14.7958
1180.49	9.8324
1183.87	7.1543
1187.24	17.8927
1190.62	15.0819
1193.99	17.4617
1197.37	4.37488
1200.74	1.57666
1204.12	2.66296
1207.49	5.59131
1210.86	4.51623
1214.24	2.4408
1217.61	11.2216
1220.99	7.34534
1224.36	17.3982
1227.74	8.95508
1231.11	4.35364
1234.49	7.55066
1237.86	7.12573
1241.24	1.5227
1244.61	20.4531
1247.99	2.96912
1251.36	6.25671
1254.74	5.59045
1258.11	4.97119
1261.49	4.16064
1264.86	6.83679
1268.24	2.25244
1271.61	8.37927
1274.99	5.6228
1278.36	13.5502
1281.73	1.84009
1285.11	19.6622
1288.48	3.97327
1291.86	8.83215
1295.23	5.36585
1298.61	8.46094
1301.98	0.880005
