Measurement: Raman, 780 nm, unoriented, Raman Data Processed
Mineral: Pyrophyllite
Rruff sample: R050108
Ideal chemistry: Al_2_Si_4_O_10_(OH)_2_
Locality: Graves Mountain, Lincoln County, Georgia, USA
Source: Rock Currier
Description: Lamellar radial aggregates
Measured chemistry: (Al_.976_Fe_.020_Mg_.002_Ca_.001_)_2_Si_4_O_10_(OH)_2_
Raman shift (cm-1)	intensity
118.206	0
121.098	11.7412
123.991	2.60156
126.884	8.79785
129.776	3.22656
132.669	20.1992
135.562	4.18359
138.455	24.4023
141.347	52.1416
144.24	35.8633
147.133	35.8711
150.025	65.499
152.918	97.29
155.811	90.8486
158.703	120.024
161.596	144.743
164.489	127.377
167.382	124.455
170.274	151.722
173.167	136.325
176.06	126.057
178.952	129.71
181.845	89.9717
184.738	94.043
187.631	93.416
190.523	145.312
193.416	160.158
196.309	138.875
199.201	88.4082
202.094	79.4287
204.987	77.7402
207.879	65.0938
210.772	53.3418
213.665	43.5205
216.558	61.9463
219.45	57.0156
222.343	43.7695
225.236	42.1221
228.128	32.6387
231.021	13.3613
233.914	35.8652
236.806	43.0801
239.699	63.0596
242.592	124.749
245.484	117.483
248.377	115.764
251.27	183.956
254.162	192.69
257.055	245.757
259.948	356.962
262.841	272.106
265.733	59.4004
268.626	25.2227
271.519	31.9551
274.411	20.2539
277.304	13.0391
280.197	5.81543
283.089	8.83496
285.982	16.2207
288.875	11.9136
291.768	18.1235
294.66	31.8574
297.553	18.0171
300.446	6.14062
303.338	16.5781
306.231	7.73779
309.124	5.04248
312.017	2.36865
314.909	2.58496
317.802	11.2563
320.695	29.5928
323.587	14.8755
326.48	3.09277
329.373	18.5762
332.265	0.748047
335.158	16.9854
338.051	34.1216
340.943	28.5591
343.836	18.4697
346.729	28.7012
349.622	29.2354
352.514	42.1582
355.407	40.3423
358.3	31.1763
361.192	50.021
364.085	39.1924
366.978	26.4439
369.87	12.6826
372.763	20.5986
375.656	6.88428
378.549	18.2564
381.441	7.37061
384.334	14.8994
387.227	13.0874
390.119	2.98731
393.012	7.2085
395.905	13.2744
398.798	7.8916
401.69	23.269
404.583	22.2105
407.476	1.81982
410.368	13.3999
413.261	19.1992
416.154	31.8247
419.046	25.1226
421.939	23.4863
424.832	22.2476
427.724	43.7256
430.617	29.8486
433.51	49.956
436.402	36.6406
439.295	30.2051
442.188	18.0762
445.081	36.2539
447.973	25.6641
450.866	22.6045
453.759	44.6665
456.651	42.9395
459.544	67.6352
462.437	58.2417
465.329	63.9136
468.222	54.8984
471.115	45.9273
474.008	53.6162
476.9	46.7871
479.793	35.0137
482.686	31.1396
485.578	22.8667
488.471	46.5864
491.364	42.8071
494.257	39.9858
497.149	39.5552
500.042	48.123
502.935	26.7856
505.827	19.9707
508.72	29.5112
511.613	13.8198
514.505	25.9526
517.398	23.8257
520.291	2.854
523.183	6.27637
526.076	2.18359
528.969	12.7441
531.862	20.5352
534.754	3.51172
537.647	9.90771
540.54	7.05859
543.432	1.23047
546.325	2.91846
549.218	0.206055
552.11	12.8511
555.003	20.5483
557.896	6.46289
560.788	15.082
563.681	0.647461
566.574	4.65137
569.467	4.69629
572.359	13.1997
575.252	8.1084
578.145	13.1953
581.037	19.4102
583.93	38.5278
586.823	30.5791
589.716	31.3574
592.608	29.898
595.501	51.2764
598.394	25.7393
601.286	22.6807
604.179	29.5884
607.072	30.1621
609.964	15.4214
612.857	37.1948
615.75	30.0225
618.643	32.6157
621.535	27.709
624.428	38.3433
627.321	29.5791
630.213	19.3428
633.106	29.6782
635.999	16.5781
638.891	22.0649
641.784	40.3506
644.677	4.68652
647.569	2.25098
650.462	25.8115
653.355	0.688965
656.248	13.5508
659.14	6.30176
662.033	3.16699
664.926	19.5464
667.818	2.7832
670.711	0.272949
673.604	9.4331
676.496	3.66699
679.389	17.5923
682.282	13.4331
685.175	9.65039
688.067	29.3486
690.96	57.981
693.853	54.1157
696.745	79.209
699.638	110.559
702.531	127.5
705.423	137.071
708.316	87.7773
711.209	81.4336
714.101	49.1445
716.994	22.8921
719.887	15.6865
722.78	16.7012
725.672	1.9707
728.565	18.2905
731.458	10.6836
734.35	21.3667
737.243	15.7573
740.136	13.6333
743.029	6.54492
745.921	11.3784
748.814	4.03369
751.707	32.6392
754.599	17.77
757.492	11.1694
760.385	4.71387
763.277	6.04932
766.17	1.1543
769.063	2.32324
771.956	9.07202
774.848	10.8921
777.741	6.88403
780.634	16.3035
783.526	3.43164
786.419	9.15137
789.312	15.4714
792.204	22.5
795.097	4.86133
797.99	32.8201
800.882	15.4629
803.775	19.3767
806.668	21.293
809.561	39.5847
812.453	18.3445
815.346	36.5713
818.239	26.4802
821.131	19.2571
824.024	13.6623
826.917	14.2827
829.809	14.4978
832.702	12.512
835.595	13.8813
838.487	29.4397
841.38	29.3411
844.273	20.5249
847.166	26.4563
850.058	16.783
852.951	15.846
855.844	15.1919
858.736	16.4136
861.629	18.167
864.522	14.2163
867.415	8.83594
870.307	23.2996
873.2	6.37793
876.093	12.0877
878.985	12.5427
881.878	7.84253
884.771	4.24146
887.663	5.41357
890.556	6.83838
893.449	6.72266
896.341	3.37427
899.234	4.37744
902.127	9.29468
905.02	3.14673
907.912	9.11035
910.805	0.954834
913.698	10.0488
916.59	13.9248
919.483	19.8472
922.376	9.53418
925.269	11.5139
928.161	19.3315
931.054	12.4558
933.947	26.6992
936.839	17.8787
939.732	6.97705
942.625	0.72583
945.517	11.8789
948.41	19.5928
951.303	30.1619
954.196	22.5852
957.088	14.0969
959.981	14.7602
962.874	21.6611
965.766	0.317383
968.659	9.62866
971.552	2.13257
974.444	10.9165
977.337	4.81396
980.23	5.41992
983.122	1.19775
986.015	5.61011
988.908	3.03198
991.801	16.8579
994.693	1.94775
997.586	18.9036
1000.48	2.74585
1003.37	9.0686
1006.26	13.1121
1009.16	17.9805
1012.05	16.4421
1014.94	25.1482
1017.84	21.4761
1020.73	12.1267
1023.62	19.873
1026.51	0.982422
1029.41	21.0325
1032.3	16.6653
1035.19	4.4563
1038.08	22.0903
1040.98	20.4915
1043.87	22.4021
1046.76	18.3008
1049.65	18.136
1052.55	13.3982
1055.44	13.429
1058.33	20.0178
1061.22	20.4744
1064.12	32.0459
1067.01	23.2263
1069.9	6.62183
1072.8	11.5671
1075.69	16.9197
1078.58	2.48584
1081.47	11.0601
1084.37	11.0964
1087.26	22.4668
1090.15	28.2349
1093.05	19.1848
1095.94	11.8789
1098.83	7.85474
1101.72	12.4739
1104.62	11.3545
1107.51	5.21338
1110.4	5.20312
1113.29	2.50049
1116.19	14.6973
1119.08	18.5571
1121.97	11.3127
1124.87	21.6365
1127.76	7.37402
1130.65	15.1477
1133.54	11.1838
1136.43	24.3347
1139.33	3.00879
1142.22	3.5188
1145.11	13.4182
1148.01	17.3311
1150.9	19.7918
1153.79	14.0408
1156.68	26.2056
1159.58	15.1062
1162.47	17.5129
1165.36	16.1736
1168.26	7.61914
1171.15	23.3416
1174.04	25.7634
1176.93	14.6223
1179.83	30.8691
1182.72	6.46533
1185.61	22.668
1188.5	21.4802
1191.4	8.72876
1194.29	25.6958
1197.18	18.8169
1200.08	7.82275
1202.97	5.1853
1205.86	9.53906
1208.75	8.62866
1211.65	3.88086
1214.54	14.54
1217.43	1.17578
1220.32	0.88916
1223.22	2.86231
1226.11	7.43677
1229	18.3408
1231.89	18.9668
1234.79	20.2622
1237.68	10.4319
1240.57	18.1216
1243.46	13.2075
1246.36	2.17432
1249.25	10.2869
1252.14	4.46826
1255.04	9.23535
1257.93	8.04248
1260.82	9.08081
1263.71	1.66602
1266.61	20.1499
