Measurement: Raman, 532 nm, unoriented, Raman Data Processed
Mineral: Pyrolusite
Rruff sample: R120169
Ideal chemistry: Mn^4+^O_2_
Locality: Unnamed prospect, Tal-Tal, Antofagasta Region, Chile
Source: Bob Jenkins
Description: Aggregate of steel-gray prismatic crystals
Raman shift (cm-1)	intensity
202.177	0
205.07	0.751614
207.962	0.190666
210.855	0.567265
213.748	1.52549
216.64	1.19414
219.533	2.28903
222.426	1.94035
225.319	1.45382
228.211	0.808559
231.104	1.78552
233.997	1.05612
236.889	0.196815
239.782	1.68252
242.675	1.3997
245.567	0.103699
248.46	1.88
251.353	2.41289
254.245	2.41834
257.138	0.04034
260.031	1.57006
262.924	2.37809
265.816	2.24518
268.709	1.8545
271.602	0.255619
274.494	1.81538
277.387	1.45624
280.28	0.345875
283.173	1.20586
286.065	2.25582
288.958	1.04208
291.851	0.895393
294.743	1.84024
297.636	2.58296
300.529	2.21456
303.421	2.48448
306.314	0.057911
309.207	2.15995
312.099	2.56823
314.992	1.75155
317.885	1.6437
320.778	2.35114
323.67	1.47383
326.563	1.5216
329.456	1.04367
332.348	1.81778
335.241	0.445053
338.134	1.09838
341.027	2.41497
343.919	0.713074
346.812	2.42809
349.705	2.84125
352.597	0.658936
355.49	0.56321
358.383	2.46051
361.276	2.05452
364.168	2.90216
367.061	0.871483
369.954	1.09678
372.846	0.891499
375.739	2.08877
378.632	1.29316
381.524	1.54001
384.417	1.63056
387.31	1.65896
390.202	0.590925
393.095	1.02063
395.988	0.029619
398.881	0.728365
401.773	2.83135
404.666	0.463863
407.559	0.40354
410.451	1.3065
413.344	0.299374
416.237	0.299717
419.13	0.623314
422.022	0.427694
424.915	0.255905
427.808	1.11732
430.7	1.50013
433.593	0.057596
436.486	1.35885
439.378	0.591864
442.271	0.583843
445.164	0.802027
448.057	0.928518
450.949	1.99314
453.842	1.60717
456.735	1.33968
459.627	1.31362
462.52	1.05983
465.413	0.819826
468.305	1.68523
471.198	0.192833
474.091	1.17994
476.983	0.821239
479.876	1.80587
482.769	1.0448
485.662	1.5632
488.554	0.002094
491.447	0.008368
494.34	0.403149
497.232	0.411737
500.125	0.811972
503.018	0.215183
505.911	1.43896
508.803	1.56898
511.696	1.95254
514.589	1.47368
517.481	4.51539
520.374	4.79665
523.267	5.84864
526.159	10.3904
529.052	14.1696
531.945	18.8424
534.837	20.8928
537.73	22.9312
540.623	15.9676
543.516	9.33267
546.408	7.05316
549.301	5.19205
552.194	3.92401
555.086	2.3607
557.979	4.02734
560.872	1.72621
563.764	0.181503
566.657	2.51909
569.55	1.04354
572.443	1.3108
575.335	1.05147
578.228	0.186522
581.121	1.2186
584.013	1.48257
586.906	0.486103
589.799	1.44398
592.692	1.46994
595.584	1.7603
598.477	1.66815
601.37	1.2232
604.262	0.307867
607.155	2.16139
610.048	0.44454
612.94	0.912085
615.833	1.42462
618.726	2.68762
621.619	1.2259
624.511	2.35422
627.404	1.43636
630.297	1.58935
633.189	2.31468
636.082	2.1128
638.975	2.59843
641.867	2.13982
644.76	4.67162
647.653	5.49566
650.545	6.51922
653.438	9.79212
656.331	11.3501
659.224	13.5673
662.116	14.8931
665.009	16.7328
667.902	14.1171
670.794	13.6935
673.687	9.80837
676.58	8.38103
679.472	6.79517
682.365	6.30933
685.258	4.75586
688.151	3.58259
691.043	2.44018
693.936	1.5162
696.829	2.11345
699.721	1.50819
702.614	0.695158
705.507	2.72083
708.399	0.449589
711.292	0.512726
714.185	0.142801
717.078	0.136934
719.97	0.347141
722.863	0.458015
725.756	1.24865
728.648	0.702499
731.541	0.312939
734.434	0.633867
737.327	0.767569
740.219	0.334408
743.112	0.625849
746.005	1.41847
748.897	1.07821
751.79	1.30618
754.683	0.977165
757.575	0.369637
760.468	1.77997
763.361	1.57145
766.254	1.27961
769.146	1.69246
772.039	0.645645
774.932	0.316433
777.824	1.92619
780.717	1.03767
783.61	3.25611
786.502	1.8619
789.395	2.61034
792.288	3.50463
795.181	3.17761
798.073	3.11597
800.966	2.49606
803.859	0.09095
806.751	2.08953
809.644	3.70148
812.537	2.64795
815.429	3.62852
818.322	4.16159
821.215	4.36921
824.107	5.04638
827	4.38228
829.893	4.80433
832.786	4.34133
835.678	5.48885
838.571	5.0153
841.464	5.59951
844.356	4.84298
847.249	4.96667
850.142	4.77042
853.034	5.66421
855.927	4.16102
858.82	5.67937
861.713	5.65966
864.605	3.88543
867.498	4.14563
870.391	3.617
873.283	3.29604
876.176	3.62571
879.069	3.93661
881.962	3.25827
884.854	3.67503
887.747	2.99333
890.64	2.59101
893.532	1.58028
896.425	2.5385
899.318	0.272289
902.21	1.51421
905.103	0.84617
907.996	0.229057
910.889	0.722486
913.781	0.632246
916.674	0.162655
919.567	0.488922
922.459	1.23945
925.352	0.602365
928.245	0.878466
931.137	0.230576
934.03	0.545015
936.923	0.081409
939.816	0.606905
942.708	0.137112
945.601	0.500254
948.494	1.46182
951.386	0.630648
954.279	0.358221
957.172	0.79738
960.064	0.782818
962.957	0.391991
965.85	0.446024
968.742	0.353329
971.635	0.996105
974.528	0.791565
977.421	2.76789
980.313	1.19462
983.206	2.83995
986.099	2.25252
988.991	3.98567
991.884	2.378
994.777	3.84985
997.669	4.66305
1000.56	2.48301
1003.46	1.58194
1006.35	1.03894
1009.24	1.6677
1012.13	0.237396
1015.03	0.557678
1017.92	0.634823
1020.81	0.041986
1023.7	0.08116
1026.6	1.25949
1029.49	1.24475
1032.38	1.8887
1035.28	0.757462
1038.17	0.998098
1041.06	1.42153
1043.95	0.919823
1046.85	2.26803
1049.74	1.27298
1052.63	2.77503
1055.52	1.21816
1058.42	0.328738
1061.31	1.28944
1064.2	1.27366
1067.09	1.07502
1069.99	1.37369
1072.88	2.63452
1075.77	0.872046
1078.66	0.782906
1081.56	0.936288
1084.45	0.81443
1087.34	1.14193
1090.24	0.466037
1093.13	1.25767
1096.02	1.33365
1098.91	0.811416
1101.81	0.868886
1104.7	0.442992
1107.59	0.238827
1110.48	1.33797
1113.38	0.170979
1116.27	1.58236
1119.16	1.8092
1122.06	0.621623
1124.95	1.61437
1127.84	0.012523
1130.73	0.556393
1133.63	0.255537
1136.52	0.033859
1139.41	0.286137
1142.3	0.086339
1145.2	0.834353
1148.09	1.29166
1150.98	0.866752
1153.88	2.39967
1156.77	0.693992
1159.66	2.06483
1162.55	1.02974
1165.45	0.154632
1168.34	0.212149
1171.23	2.02828
1174.12	0.866568
1177.02	1.27436
1179.91	1.45947
1182.8	1.00789
1185.69	1.2743
1188.59	0.383031
1191.48	1.54202
1194.37	1.51769
1197.27	0.863111
1200.16	1.73594
1203.05	1.28177
1205.94	0.353932
1208.84	0.553046
1211.73	1.29219
1214.62	0.539996
1217.52	1.40595
1220.41	1.40131
1223.3	0.584291
1226.19	1.79816
1229.09	0.061268
1231.98	0.87861
1234.87	1.21989
1237.76	1.47895
1240.66	0.992795
1243.55	0.018682
1246.44	1.69055
1249.33	0.496811
1252.23	1.36533
1255.12	1.0912
1258.01	1.17194
1260.9	0.763037
1263.8	1.30787
1266.69	1.57171
1269.58	0.463836
1272.48	0.264467
1275.37	1.47666
1278.26	1.31369
1281.15	0.082915
1284.05	0.567077
1286.94	1.6187
1289.83	0.589471
1292.72	0.387304
1295.62	0.787993
1298.51	0.294135
1301.4	0.729823
