Measurement: Raman, 780 nm, unoriented, Raman Data Processed
Mineral: Pyrochlore
Rruff sample: R070742
Ideal chemistry: Ca_2_Nb_2_O_7_
Locality: Alakurtti pegmatite, North Karelia, Murmanskaja Oblast', Northern Region, Russia
Source: Michael Scott
Description: Vitreous brown metamict fragments
Raman shift (cm-1)	intensity
148.933	0
151.825	112.057
154.718	115.244
157.611	127.609
160.503	191.121
163.396	58.418
166.289	27.2832
169.181	25.791
172.074	186.166
174.967	40.7129
177.859	114.791
180.752	136.557
183.645	13.7969
186.538	14.4863
189.43	53.3027
192.323	81.8652
195.216	62.4258
198.108	217.516
201.001	217.725
203.894	57.8398
206.786	193.637
209.679	198.127
212.572	214.451
215.465	187.5
218.357	145.486
221.25	139.197
224.143	325.981
227.035	230.012
229.928	302.18
232.821	316.557
235.714	379.842
238.606	546.225
241.499	575.504
244.392	611.111
247.284	689.162
250.177	692.834
253.07	733.227
255.962	796.705
258.855	746.496
261.748	664.691
264.64	628.354
267.533	753.637
270.426	619.342
273.319	589.332
276.211	467.117
279.104	344.494
281.997	298.586
284.889	230.834
287.782	339.065
290.675	231.576
293.567	148.637
296.46	16.2559
299.353	135.426
302.246	8.08594
305.138	168.07
308.031	95.4473
310.924	44.6211
313.816	31.6172
316.709	7.15039
319.602	65.6211
322.495	74.6367
325.387	85.4824
328.28	24.1914
331.173	55.2402
334.065	57.0156
336.958	22.6426
339.851	72.291
342.743	188.693
345.636	158.891
348.529	265.428
351.421	253.494
354.314	333.137
357.207	391.147
360.1	480.353
362.992	363.106
365.885	426.533
368.778	527.777
371.67	466.156
374.563	524.129
377.456	519.418
380.349	568.182
383.241	570.09
386.134	696.432
389.027	746.693
391.919	697.912
394.812	732.217
397.705	715.354
400.597	658.305
403.49	744.734
406.383	692.49
409.276	728.76
412.168	705.016
415.061	687.137
417.954	636.875
420.846	630.822
423.739	566.842
426.632	553.637
429.524	589.873
432.417	441.984
435.31	468.676
438.202	403.141
441.095	383.846
443.988	339.492
446.881	548.469
449.773	267.037
452.666	175.967
455.559	229.664
458.451	204.598
461.344	198.506
464.237	182.389
467.13	132.611
470.022	291.07
472.915	179.492
475.808	263.17
478.7	203.078
481.593	325.873
484.486	147.168
487.378	147.389
490.271	180.41
493.164	137.68
496.057	197.262
498.949	86.8301
501.842	188.633
504.735	32.6621
507.627	285.098
510.52	114.693
513.413	58.3584
516.305	71.6271
519.198	7.24512
522.091	9.40137
524.984	56.2786
527.876	5.08691
530.769	59.6875
533.662	72.1865
536.554	3.52441
539.447	1.97266
542.34	96.8193
545.232	4.07422
548.125	110.992
551.018	62.46
553.91	193.913
556.803	254.51
559.696	203.572
562.589	323.218
565.481	323.159
568.374	376.907
571.267	373.987
574.159	423.207
577.052	471.935
579.945	471.743
582.837	444.003
585.73	602.852
588.623	558.116
591.516	503.346
594.408	525.01
597.301	578.088
600.194	548.526
603.086	551.719
605.979	681.654
608.872	566.652
611.764	638.084
614.657	647.006
617.55	646.396
620.443	648.683
623.335	652.102
626.228	645.706
629.121	646.941
632.013	681.13
634.906	573.351
637.799	625.684
640.692	659.035
643.584	571.488
646.477	559.835
649.37	558.423
652.262	620.906
655.155	498.287
658.048	526.975
660.94	402.675
663.833	336.139
666.726	390.339
669.619	317.131
672.511	303.073
675.404	250.949
678.297	199.677
681.189	173.458
684.082	86.3965
686.975	81.2647
689.867	80.4824
692.76	62.8877
695.653	2.9043
698.545	13.6934
701.438	4.2334
704.331	16.1123
707.224	7.13769
710.116	5.8584
713.009	24.0508
715.902	12.376
718.794	37.1055
721.687	8.22949
724.58	9.72559
727.472	135.471
730.365	150.361
733.258	326.862
736.151	253.629
739.043	350.955
741.936	515.651
744.829	548.704
747.721	683.269
750.614	677.472
753.507	750.349
756.399	814.389
759.292	859.685
762.185	961.192
765.078	1090.98
767.97	1198.49
770.863	1314.1
773.756	1309.9
776.648	1415.93
779.541	1546.46
782.434	1491.89
785.327	1564.88
788.219	1572.95
791.112	1626.37
794.005	1598.07
796.897	1544.88
799.79	1567.24
802.683	1461.8
805.575	1405.91
808.468	1327.88
811.361	1313.26
814.254	1181.37
817.146	1134.61
820.039	990.827
822.932	841.294
825.824	749.948
828.717	632.025
831.61	553.075
834.502	414.721
837.395	440.089
840.288	251.761
843.181	172.448
846.073	125.333
848.966	16.7148
851.859	24.0791
854.751	24.8564
857.644	46.9551
860.537	1.51172
863.429	19.0322
866.322	31.5479
869.215	30.4844
872.107	45.4556
875	111.435
877.893	128.579
880.786	134.656
883.678	184.941
886.571	257.305
889.464	311.337
892.356	357.438
895.249	383.025
898.142	408.669
901.034	384.296
903.927	445.706
906.82	423.928
909.713	456.406
912.605	443.953
915.498	393.765
918.391	394.702
921.283	343.651
924.176	315.461
927.069	223.202
929.962	179.055
932.854	142.852
935.747	127.273
938.64	68.6616
941.532	15.208
944.425	25.5337
947.318	10.1167
950.21	44.7935
953.103	5.02588
955.996	5.20728
958.889	3.17432
961.781	4.94311
964.674	39.1743
967.567	23.8621
970.459	42.5125
973.352	75.2493
976.245	87.509
979.137	157.961
982.03	154.537
984.923	189.043
987.816	279.275
990.708	269.18
993.601	327.33
996.494	277.83
999.386	343.792
1002.28	341.813
1005.17	388.308
1008.06	366.505
1010.96	353.246
1013.85	317.446
1016.74	318.615
1019.63	334.429
1022.53	324.802
1025.42	368.156
1028.31	330.822
1031.21	317.353
1034.1	314.414
1036.99	304.711
1039.88	355.737
1042.78	294.311
1045.67	258.488
1048.56	269.381
1051.45	253.085
1054.35	304.951
1057.24	233.155
1060.13	265.719
1063.03	268.207
1065.92	235.927
1068.81	239.84
1071.7	209.503
1074.6	243.329
1077.49	249.693
1080.38	221.484
1083.28	173.112
1086.17	229.954
1089.06	118.483
1091.95	164.505
1094.85	150.362
1097.74	151.191
1100.63	110.125
1103.52	117.939
1106.42	69.741
1109.31	28.7363
1112.2	5.38232
1115.09	29.9136
1117.99	19.957
1120.88	50.5137
1123.77	2.54028
1126.66	21.5041
1129.56	32.3838
1132.45	90.9551
1135.34	56.9605
1138.24	93.9836
1141.13	93.4553
1144.02	95.4624
1146.91	139.471
1149.81	122.097
1152.7	114.299
1155.59	78.1323
1158.48	86.5112
1161.38	67.9331
1164.27	73.2285
1167.16	70.3179
1170.06	53.9575
1172.95	0.524414
1175.84	6.89209
