Measurement: Raman, 532 nm, unoriented, Raman Data Processed
Mineral: Pyrrhotite
Rruff sample: R061127
Ideal chemistry: Fe^2+^_5_Fe^3+^_2_S^2-^_8_
Locality: Morro Velho Gold mine, Nova Umha, Minas Gerais, Brazil
Source: Michael Scott
Description: Brass colored, prismatic crystals associated with quartz and dolomite
Raman shift (cm-1)	intensity
176.37	0
179.263	4.75343
182.155	1.17837
185.048	2.22057
187.941	3.87286
190.833	6.36067
193.726	2.81776
196.619	0.015121
199.512	5.04292
202.404	3.96539
205.297	1.44513
208.19	4.87242
211.082	2.35293
213.975	3.77666
216.868	3.71436
219.761	5.18228
222.653	2.75433
225.546	4.66206
228.439	3.27852
231.331	6.53239
234.224	0.973724
237.117	3.35075
240.009	2.75094
242.902	3.96835
245.795	1.60174
248.688	2.15102
251.58	3.75643
254.473	2.02904
257.366	1.92009
260.258	3.88699
263.151	5.1439
266.044	2.59225
268.936	4.60254
271.829	5.10349
274.722	7.42102
277.615	6.66412
280.507	10.1642
283.4	6.13499
286.293	3.34961
289.185	5.95178
292.078	3.54735
294.971	3.17835
297.863	8.5328
300.756	7.15965
303.649	8.58235
306.541	11.4836
309.434	12.247
312.327	11.8052
315.22	11.5139
318.112	12.6052
321.005	13.105
323.898	17.4821
326.791	15.6943
329.683	14.4063
332.576	12.8835
335.469	10.4567
338.361	6.08135
341.254	6.15091
344.147	3.88035
347.039	2.49414
349.932	2.84891
352.825	1.08515
355.717	4.55362
358.61	0.302994
361.503	4.18348
364.396	0.680168
367.288	0.201439
370.181	0.686977
373.074	1.12914
375.966	0.105122
378.859	0.347027
381.752	0.70266
384.644	2.42053
387.537	1.81869
390.43	1.56261
393.323	2.80117
396.215	1.55368
399.108	1.9781
402.001	1.35729
404.894	1.13993
407.786	4.95332
410.679	0.460594
413.572	1.52241
416.464	3.3573
419.357	4.40665
422.25	3.3522
425.142	1.35212
428.035	4.27427
430.928	3.63651
433.82	4.15705
436.713	2.34304
439.606	6.16403
442.499	2.42728
445.391	4.84095
448.284	0.511868
451.177	3.68526
454.069	2.50444
456.962	1.3444
459.855	4.62317
462.748	1.79878
465.64	3.40959
468.533	3.47315
471.426	1.85275
474.318	4.31391
477.211	4.41338
480.104	2.73416
482.996	2.67809
485.889	4.27369
488.782	1.77525
491.675	1.3885
494.567	6.14262
497.46	2.27121
500.353	3.10183
503.245	3.40253
506.138	2.52662
509.031	4.00602
511.923	1.48813
514.816	1.95387
517.709	3.68795
520.602	3.66674
523.494	1.2498
526.387	2.00892
529.28	2.28067
532.172	2.71373
535.065	1.10353
537.958	2.36726
540.851	4.69416
543.743	1.0711
546.636	0.048088
549.529	3.49275
552.421	1.02576
555.314	2.41117
558.207	0.003517
561.099	4.17389
563.992	1.50679
566.885	2.06707
569.778	2.06387
572.67	2.84732
575.563	3.40645
578.456	3.08994
581.348	0.134666
584.241	3.79125
587.134	0.824036
590.027	1.41526
592.919	2.56553
595.812	0.162643
598.705	0.235878
601.597	2.84013
604.49	2.32634
607.383	3.44857
610.275	1.65407
613.168	2.26173
616.061	1.23613
618.953	0.726257
621.846	1.58693
624.739	1.14247
627.632	1.71489
630.524	0.394264
633.417	0.467354
636.31	3.416
639.202	0.519829
642.095	5.33587
644.988	2.82752
647.881	3.03153
650.773	3.4825
653.666	3.46202
656.559	2.36283
659.451	2.43357
662.344	4.32022
665.237	2.51636
668.13	4.95678
671.022	2.59397
673.915	1.62896
676.808	2.40585
679.7	0.222755
682.593	3.31148
685.486	2.16876
688.378	4.4816
691.271	2.27897
694.164	0.677902
697.057	0.333176
699.949	3.37808
702.842	3.30596
705.735	2.45233
708.627	1.85096
711.52	1.30154
714.413	3.0541
717.305	0.728264
720.198	0.993309
723.091	0.682858
725.984	1.99371
728.876	1.15298
731.769	3.92083
734.662	1.66767
737.554	2.57206
740.447	2.30575
743.34	3.26869
746.232	3.26549
749.125	2.15387
752.018	1.5572
754.91	1.25597
757.803	1.33487
760.696	0.831337
763.589	2.68373
766.481	3.26187
769.374	2.261
772.267	4.91249
775.159	2.05032
778.052	0.046124
780.945	1.70294
783.838	2.95992
786.73	3.46444
789.623	2.58894
792.516	2.71709
795.408	1.582
798.301	0.846115
801.194	2.35991
804.087	2.58364
806.979	1.27834
809.872	0.087208
812.765	2.96436
815.657	1.7922
818.55	0.985638
821.443	2.65852
824.335	2.61639
827.228	2.32789
830.121	2.06752
833.014	3.43371
835.906	2.54331
838.799	1.55582
841.692	2.06099
844.584	2.51069
847.477	2.23349
850.37	3.57701
853.263	3.19789
856.155	2.02808
859.048	1.36107
861.941	2.61267
864.833	3.34471
867.726	3.56958
870.619	1.41898
873.511	1.4037
876.404	1.23063
879.297	2.3875
882.189	2.76084
885.082	2.0219
887.975	0.913067
890.868	1.51189
893.76	1.66314
896.653	1.70818
899.546	0.620281
902.438	1.89165
905.331	3.96545
908.224	2.2086
911.116	2.42825
914.009	0.532791
916.902	0.727116
919.795	2.13362
922.687	1.35532
925.58	2.15296
928.473	2.51245
931.365	2.50348
934.258	1.267
937.151	4.04163
940.044	0.507092
942.936	2.331
945.829	1.91684
948.722	1.27552
951.614	3.02137
954.507	2.6243
957.4	1.11509
960.293	3.18223
963.185	1.99419
966.078	1.355
968.971	1.92779
971.863	1.45221
974.756	1.54462
977.649	0.558117
980.541	1.19311
983.434	1.56036
986.327	1.76988
989.22	0.976521
992.112	2.36804
995.005	1.7713
997.898	1.05677
1000.79	2.47496
1003.68	1.17565
1006.58	1.96388
1009.47	2.31463
1012.36	3.16922
1015.25	2.52604
1018.15	1.0097
1021.04	2.53198
1023.93	0.18182
1026.83	1.96773
1029.72	3.03333
1032.61	0.549866
1035.5	3.06031
1038.4	1.25961
1041.29	1.51963
1044.18	0.818012
1047.07	4.4423
1049.97	0.856178
1052.86	3.53774
1055.75	2.53241
1058.64	1.59767
1061.54	4.02396
1064.43	0.555977
1067.32	2.20253
1070.21	1.78872
1073.11	2.57782
1076	2.23352
1078.89	2.35376
1081.79	2.15883
1084.68	3.2749
1087.57	0.287727
1090.46	3.60491
1093.36	0.981365
1096.25	3.28638
1099.14	1.46168
1102.04	3.65832
1104.93	2.1193
1107.82	1.91068
1110.71	2.93153
1113.61	2.21666
1116.5	1.88497
1119.39	3.42136
1122.28	1.17665
1125.18	2.89656
1128.07	1.46319
1130.96	2.55822
1133.86	2.3027
1136.75	0.132092
1139.64	1.03157
1142.53	3.63561
1145.43	1.22747
1148.32	2.38887
1151.21	2.66158
1154.1	0.991882
1157	3.21153
1159.89	0.768299
1162.78	4.19603
1165.67	0.141487
1168.57	4.93597
1171.46	4.11034
1174.35	2.47478
1177.24	1.00518
1180.14	2.2605
1183.03	1.78322
1185.92	0.49596
1188.82	0.021088
1191.71	3.90036
1194.6	1.69193
1197.49	1.71786
1200.39	3.84056
1203.28	1.83466
1206.17	3.31605
1209.07	2.71582
1211.96	2.93552
1214.85	2.29855
1217.74	1.81897
1220.64	1.41542
1223.53	1.28334
1226.42	3.20488
1229.31	0.138706
1232.21	2.52153
1235.1	4.85886
1237.99	1.67642
1240.88	1.16166
1243.78	2.2587
1246.67	3.12023
1249.56	1.95265
1252.45	3.63079
1255.35	2.45992
1258.24	0.957626
1261.13	2.85561
1264.03	4.36921
1266.92	3.06691
1269.81	0.088253
1272.7	3.30696
1275.6	3.24235
1278.49	2.49439
1281.38	4.24115
1284.28	3.46536
1287.17	2.79816
1290.06	1.78307
1292.95	4.05957
1295.85	3.14434
1298.74	3.62019
1301.63	0.584148
