Measurement: Raman, 780 nm, unoriented, Raman Data Processed
Mineral: Pyrrhotite
Rruff sample: R060440
Ideal chemistry: Fe^2+^_5_Fe^3+^_2_S^2-^_8_
Locality: Dal 'Negorsk, Primorskiy Kray, far eastern Russia
Source: Michael Scott
Description: Bronze-yellow metallic tabular hexagonal prisms
Measured chemistry: Fe_7.1_S_8.0_
Raman shift (cm-1)	intensity
160.512	0
163.405	0.481871
166.298	0.837326
169.19	2.93086
172.083	0.011618
174.976	1.04271
177.869	2.48393
180.761	1.83412
183.654	0.427267
186.547	0.897095
189.439	0.139538
192.332	1.90296
195.225	1.54925
198.117	1.12803
201.01	1.38204
203.903	3.35916
206.796	1.06149
209.688	2.33062
212.581	0.142887
215.474	1.72794
218.366	2.28782
221.259	0.079599
224.152	1.07515
227.044	0.099072
229.937	0.713118
232.83	2.68832
235.722	2.63944
238.615	2.72103
241.508	1.14901
244.401	2.41561
247.293	2.62852
250.186	1.2819
253.079	1.64061
255.971	0.543112
258.864	0.380262
261.757	0.741224
264.649	0.722666
267.542	0.892851
270.435	1.71577
273.328	2.19749
276.22	1.60134
279.113	1.07453
282.006	0.243305
284.898	0.005121
287.791	0.084774
290.684	1.36606
293.576	0.614651
296.469	1.36705
299.362	3.468
302.255	5.07744
305.147	6.1695
308.04	7.58793
310.933	8.30474
313.825	9.89676
316.718	10.7387
319.611	13.1204
322.503	13.4952
325.396	12.6658
328.289	12.4915
331.182	10.5735
334.074	8.37746
336.967	6.6634
339.86	4.67579
342.752	2.77637
345.645	2.29258
348.538	2.06607
351.43	2.58381
354.323	4.34728
357.216	5.21571
360.108	4.53511
363.001	5.39299
365.894	6.68666
368.787	7.10373
371.679	6.55696
374.572	6.27172
377.465	3.78521
380.357	3.59561
383.25	1.78832
386.143	1.73591
389.036	0.201092
391.928	2.79531
394.821	0.020218
397.714	0.076738
400.606	0.686649
403.499	2.17438
406.392	0.638424
409.284	1.08446
412.177	2.4012
415.07	0.234537
417.962	1.06848
420.855	1.0703
423.748	0.265343
426.641	1.39149
429.533	1.53083
432.426	0.970004
435.319	0.003058
438.211	0.064475
441.104	0.626949
443.997	0.973379
446.889	1.84235
449.782	0.918888
452.675	1.0554
455.567	1.03862
458.46	1.91069
461.353	1.91047
464.246	1.53676
467.138	2.17248
470.031	1.31843
472.924	1.4708
475.816	1.1209
478.709	2.00727
481.602	2.57953
484.495	1.49778
487.387	2.66761
490.28	0.819325
493.173	2.1226
496.065	1.79135
498.958	1.59179
501.851	1.40023
504.743	3.48452
507.636	1.06584
510.529	0.114937
513.422	1.01087
516.314	1.47296
519.207	1.62971
522.1	0.672484
524.992	1.26646
527.885	1.11743
530.778	1.43079
533.67	1.03465
536.563	0.919304
539.456	0.520034
542.348	1.55881
545.241	1.33104
548.134	1.99601
551.027	0.962142
553.919	2.47803
556.812	1.88282
559.705	1.59576
562.597	0.751641
565.49	3.15679
568.383	1.12978
571.275	2.34733
574.168	0.167695
577.061	0.762278
579.954	1.89281
582.846	1.11381
585.739	0.507944
588.632	1.27156
591.524	0.879255
594.417	1.33889
597.31	0.477608
600.202	1.05256
603.095	1.19651
605.988	1.33108
608.881	1.39981
611.773	1.51854
614.666	0.278264
617.559	2.19478
620.451	0.285108
623.344	1.66869
626.237	1.38346
629.129	0.279935
632.022	0.303534
634.915	1.20028
637.808	0.707618
640.7	1.01214
643.593	0.447691
646.486	1.52683
649.378	0.524088
652.271	1.97725
655.164	0.367707
658.056	0.723488
660.949	0.712812
663.842	1.58295
666.735	1.24785
669.627	1.70389
672.52	2.10014
675.413	0.710123
678.305	1.19301
681.198	1.90562
684.091	1.63689
686.983	1.74267
689.876	1.65578
692.769	1.2401
695.662	0.918094
698.554	0.366104
701.447	0.562112
704.34	0.946744
707.232	0.392719
710.125	0.451755
713.018	0.18198
715.91	1.21361
718.803	0.079292
721.696	1.23965
724.588	1.67825
727.481	0.579298
730.374	1.63193
733.266	0.503339
736.159	0.646089
739.052	0.66874
741.945	0.032781
744.837	1.01797
747.73	1.56336
750.623	1.45997
753.515	1.40674
756.408	1.57799
759.301	1.42155
762.193	0.858184
765.086	0.604269
767.979	0.001538
770.872	1.72222
773.764	1.06803
776.657	2.66376
779.55	2.59743
782.442	2.20707
785.335	1.12052
788.228	1.13797
791.12	0.657302
794.013	1.10223
796.906	1.68086
799.799	0.281391
802.691	1.26711
805.584	1.54284
808.477	1.77176
811.369	0.274304
814.262	0.032406
817.155	1.51367
820.048	0.66206
822.94	1.1012
825.833	1.01741
828.726	0.74359
831.618	0.76045
834.511	1.45438
837.404	2.75063
840.296	2.02742
843.189	1.64789
846.082	2.10602
848.975	2.66445
851.867	2.82597
854.76	1.63593
857.653	2.13038
860.545	2.21467
863.438	1.30323
866.331	2.07949
869.223	1.18632
872.116	2.61165
875.009	2.35271
877.901	1.81715
880.794	1.66814
883.687	1.63867
886.58	0.839725
889.472	1.44551
892.365	0.1427
895.258	1.63236
898.15	0.591059
901.043	0.899496
903.936	0.223345
906.828	0.124698
909.721	0.347225
912.614	0.1973
915.506	1.28102
918.399	0.914639
921.292	0.637616
924.185	0.309357
927.077	0.075637
929.97	0.218754
932.863	0.980815
935.755	0.782247
938.648	0.59147
941.541	1.30011
944.433	0.705189
947.326	1.05725
950.219	1.9049
953.112	1.24631
956.004	1.51991
958.897	1.32371
961.79	1.5273
964.682	0.864679
967.575	1.86988
970.468	1.31523
973.361	0.613903
976.253	1.5491
979.146	1.31425
982.039	0.719316
984.931	1.31845
987.824	1.34501
990.717	0.688648
993.609	1.55303
996.502	1.95453
999.395	1.67577
1002.29	1.12532
1005.18	1.48198
1008.07	0.380791
1010.97	0.706235
1013.86	0.74
1016.75	1.96106
1019.64	1.37139
1022.54	1.29889
1025.43	1.48075
1028.32	0.669087
1031.21	0.720634
1034.11	1.15359
1037	1.11362
1039.89	2.11169
1042.79	2.18338
1045.68	1.74299
1048.57	1.47927
1051.46	1.88749
1054.36	1.05252
1057.25	1.56962
1060.14	2.41476
1063.03	0.803523
1065.93	0.877465
1068.82	1.09984
1071.71	1.02157
1074.61	1.64875
1077.5	1.22195
1080.39	1.88701
1083.28	0.679605
1086.18	1.05923
1089.07	0.66145
1091.96	1.51156
1094.85	1.92997
1097.75	1.88024
1100.64	0.01811
1103.53	1.15693
1106.42	0.294107
1109.32	0.899055
1112.21	0.406442
1115.1	0.197886
1117.99	0.026969
1120.89	0.746055
1123.78	0.976666
1126.67	1.24503
1129.57	1.7816
1132.46	2.95735
1135.35	1.55791
1138.24	1.22707
1141.14	3.00366
1144.03	0.842344
1146.92	0.147925
1149.82	0.810089
1152.71	0.344921
1155.6	1.81533
1158.49	2.2288
1161.39	1.01695
1164.28	0.432171
1167.17	1.08792
1170.06	0.251886
1172.96	0.246131
1175.85	0.68986
1178.74	1.85875
1181.63	0.784218
1184.53	1.23217
1187.42	0.236558
1190.31	0.591235
1193.21	0.887843
1196.1	0.529492
1198.99	1.17444
1201.88	1.38285
1204.78	0.835752
1207.67	1.73406
1210.56	2.7179
1213.45	2.29002
1216.35	1.26034
1219.24	1.52566
1222.13	0.024662
1225.03	0.40342
1227.92	1.41585
1230.81	1.74885
1233.7	0.986426
1236.6	1.1971
1239.49	0.675427
1242.38	1.95242
1245.27	1.54495
1248.17	0.960032
1251.06	1.06504
1253.95	1.73223
1256.85	1.46532
1259.74	2.05496
1262.63	0.946638
1265.52	1.19294
1268.42	1.75242
1271.31	1.22171
1274.2	0.356508
1277.09	0.807953
1279.99	1.61821
1282.88	0.560734
