Measurement: Raman, 532 nm, unoriented, Raman Data Processed
Mineral: Quadridavyne
Rruff sample: R141084
Ideal chemistry: Na_6_Ca_2_Si_6_Al_6_O_24_Cl_4_
Locality: Mt Vesuvius, Naples Province, Campania, Italy
Source: Ch. and H. Sch√§fer
Description: Short hexagonal prismatic white crystals, associated with sodalite.
Raman shift (cm-1)	intensity
120.157	0
123.531	3.30566
126.906	13.5194
130.281	3.09399
133.656	9.91882
137.031	0.562988
140.405	2.73328
143.78	7.06445
147.155	4.4115
150.53	0.206909
153.905	7.99854
157.28	11.3221
160.654	7.3927
164.029	9.50317
167.404	16.5033
170.779	14.2506
174.154	14.7722
177.528	18.3942
180.903	14.8414
184.278	12.2411
187.653	12.7227
191.028	16.9978
194.403	14.2236
197.777	10.9795
201.152	8.71619
204.527	7.98633
207.902	6.89282
211.277	4.51941
214.651	9.49109
218.026	10.6658
221.401	5.44946
224.776	6.96057
228.151	5.23596
231.525	0.754395
234.9	0.619141
238.275	0.135864
241.65	6.67908
245.025	7.17114
248.4	0.751831
251.774	2.8064
255.149	3.90735
258.524	6.02466
261.899	7.68213
265.274	9.52832
268.649	13.9335
272.023	16.406
275.398	27.2479
278.773	30.9856
282.148	37.569
285.523	41.8105
288.897	31.4362
292.272	22.4084
295.647	10.4891
299.022	7.71912
302.397	5.31177
305.772	6.0575
309.146	8.27991
312.521	6.57886
315.896	4.57202
319.271	0.259888
322.646	2.61975
326.02	2.83081
329.395	2.95325
332.77	0.583984
336.145	0.911255
339.52	6.03162
342.894	8.40979
346.269	4.76477
349.644	3.70239
353.019	0.252686
356.394	0.606567
359.769	3.27283
363.143	0.242432
366.518	3.65564
369.893	2.48132
373.268	0.564453
376.643	1.72986
380.017	5.2843
383.392	5.42505
386.767	13.9957
390.142	5.953
393.517	0.233276
396.892	0.454224
400.266	1.41455
403.641	1.24121
407.016	0.130615
410.391	3.45471
413.766	11.6542
417.14	22.7398
420.515	31.4678
423.89	36.0497
427.265	35.8126
430.64	29.6704
434.014	14.7085
437.389	11.7402
440.764	11.7777
444.139	16.3159
447.514	25.8283
450.889	38.6095
454.263	54.9115
457.638	84.3998
461.013	106.207
464.388	137.925
467.763	157.862
471.137	167.072
474.512	139.478
477.887	100.811
481.262	70.0897
484.637	59.7432
488.012	52.0391
491.386	35.9307
494.761	25.6055
498.136	18.6162
501.511	11.4691
504.886	6.05322
508.26	4.49011
511.635	5.68994
515.01	4.71826
518.385	4.00476
521.76	1.59412
525.135	0.878174
528.509	0.146606
531.884	0.835449
535.259	1.52417
538.634	0.772339
542.009	0.418457
545.384	4.37952
548.758	5.04846
552.133	6.06213
555.508	2.38184
558.883	4.5238
562.258	8.25537
565.632	7.11536
569.007	6.69409
572.382	4.35022
575.757	6.74646
579.132	5.54627
582.506	6.92871
585.881	10.3033
589.256	7.57165
592.631	6.74573
596.006	2.69275
599.381	3.05139
602.755	0.276855
606.13	1.63257
609.505	8.32715
612.88	3.16602
616.255	4.68445
619.63	0.945313
623.004	3.43445
626.379	5.13977
629.754	3.42285
633.129	3.12634
636.504	4.16162
639.878	3.50427
643.253	7.88135
646.628	10.5411
650.003	17.6974
653.378	26.6453
656.752	22.0891
660.127	23.4554
663.502	20.2119
666.877	14.5194
670.252	15.7599
673.626	9.09766
677.001	0.14563
680.376	5.51868
683.751	2.58313
687.126	4.59985
690.501	4.73498
693.875	1.96582
697.25	0.869629
700.625	0.463623
704	0.686157
707.375	0.709717
710.75	6.80798
714.124	8.33057
717.499	9.87524
720.874	6.97705
724.249	7.79321
727.624	13.9407
730.998	4.69067
734.373	8.45422
737.748	10.459
741.123	3.63965
744.498	11.2102
747.872	10.2993
751.247	19.2605
754.622	10.8479
757.997	11.1929
761.372	9.69568
764.747	12.5792
768.121	10.069
771.496	11.418
774.871	7.57556
778.246	4.79761
781.621	5.62805
784.995	7.72009
788.37	0.709961
791.745	0.772461
795.12	1.82422
798.495	0.505249
801.87	4.64417
805.244	6.25281
808.619	6.98584
811.994	6.46399
815.369	5.66626
818.744	8.4303
822.119	10.4027
825.493	5.31226
828.868	1.26868
832.243	7.78686
835.618	0.214722
838.993	3.22937
842.367	7.04468
845.742	9.13794
849.117	6.146
852.492	6.21973
855.867	6.93323
859.241	10.0234
862.616	10.9929
865.991	5.31457
869.366	9.5072
872.741	8.49048
876.115	5.19971
879.49	1.91235
882.865	2.65735
886.24	0.408813
889.615	2.09729
892.99	3.43921
896.364	0.44873
899.739	3.03809
903.114	0.093384
906.489	2.52795
909.864	2.19312
913.239	2.87158
916.613	1.30505
919.988	0.60083
923.363	0.286865
926.738	5.30396
930.113	0.327148
933.487	0.533447
936.862	0.636719
940.237	3.15332
943.612	0.33313
946.987	1.89685
950.361	3.76099
953.736	6.28894
957.111	2.77795
960.486	2.38525
963.861	19.2673
967.236	25.075
970.61	12.1415
973.985	13.7989
977.36	13.8184
980.735	19.1295
984.11	19.0447
987.485	22.6476
990.859	17.9301
994.234	11.3883
997.609	8.17334
1000.98	9.94507
1004.36	11.7858
1007.73	12.169
1011.11	11.5216
1014.48	18.7432
1017.86	15.3551
1021.23	14.4641
1024.61	16.6196
1027.98	25.7948
1031.36	24.3397
1034.73	32.6171
1038.11	39.7294
1041.48	53.5059
1044.86	63.9889
1048.23	72.9522
1051.61	61.877
1054.98	53.4713
1058.36	31.4341
1061.73	19.2257
1065.11	12.5183
1068.48	6.84924
1071.86	2.86938
1075.23	0.134888
1078.6	0.317505
1081.98	4.24133
1085.35	4.29443
1088.73	4.05261
1092.1	2.63684
1095.48	0.484863
1098.85	3.5105
1102.23	3.75073
1105.6	4.56946
1108.98	0.038208
1112.35	0.044189
1115.73	2.59619
1119.1	5.36511
1122.48	5.7572
1125.85	1.40259
1129.23	0.694702
1132.6	0.070313
1135.98	1.88306
1139.35	4.80811
1142.73	5.97461
1146.1	5.92835
1149.48	2.13354
1152.85	6.229
1156.22	6.69043
1159.6	4.56299
1162.97	7.33594
1166.35	4.6626
1169.72	1.28564
1173.1	6.93823
1176.47	8.46362
1179.85	2.87244
1183.22	3.896
1186.6	5.24109
1189.97	2.65784
1193.35	3.92346
1196.72	5.08972
1200.1	2.07495
1203.47	4.00012
1206.85	6.27014
1210.22	3.27039
1213.6	6.9823
1216.97	4.81519
1220.35	4.92456
1223.72	4.48962
1227.1	3.06189
1230.47	5.0979
1233.85	1.55334
1237.22	4.46399
1240.6	1.02759
1243.97	5.01282
1247.35	3.67456
1250.72	5.03857
1254.1	7.01636
1257.47	8.24878
1260.85	4.25012
1264.22	1.70447
1267.59	2.19763
1270.97	3.82617
1274.34	3.36292
1277.72	5.10254
1281.09	4.52051
1284.47	2.9928
1287.84	5.37073
1291.22	3.75793
1294.59	4.23877
1297.97	4.8645
1301.34	0.432251
