Measurement: Raman, 780 nm, unoriented, Raman Data Processed
Mineral: Quadridavyne
Rruff sample: R141084
Ideal chemistry: Na_6_Ca_2_Si_6_Al_6_O_24_Cl_4_
Locality: Mt Vesuvius, Naples Province, Campania, Italy
Source: Ch. and H. Sch√§fer
Description: Short hexagonal prismatic white crystals, associated with sodalite.
Raman shift (cm-1)	intensity
122.897	0
125.79	3.62186
128.683	1.00618
131.576	3.27541
134.468	0.030075
137.361	2.64528
140.254	4.30817
143.146	2.24095
146.039	0.168076
148.932	1.24626
151.825	1.40742
154.717	2.87076
157.61	4.26649
160.503	2.4747
163.395	2.51724
166.288	1.82133
169.181	3.2448
172.073	2.55944
174.966	1.98957
177.859	1.08858
180.751	0.019226
183.644	0.641098
186.537	0.128502
189.43	1.34162
192.322	0.965958
195.215	1.81081
198.108	2.1264
201	1.72417
203.893	3.3605
206.786	2.61151
209.678	2.84809
212.571	3.74127
215.464	3.97046
218.357	3.88989
221.249	4.52119
224.142	3.81024
227.035	3.91313
229.927	3.67535
232.82	3.49238
235.713	3.4195
238.605	4.15967
241.498	3.60978
244.391	3.84863
247.284	2.99764
250.176	2.96475
253.069	0.730858
255.962	0.348221
258.854	1.21317
261.747	2.16032
264.64	0.243896
267.532	0.570526
270.425	0.536888
273.318	0.527252
276.211	1.21626
279.103	2.77397
281.996	4.87769
284.889	4.83984
287.781	3.82416
290.674	1.59699
293.567	0.078621
296.459	0.207848
299.352	0.040123
302.245	1.43212
305.137	1.64279
308.03	1.59878
310.923	3.76971
313.816	4.29172
316.708	5.55157
319.601	7.57036
322.494	8.88518
325.386	9.99308
328.279	10.6847
331.172	12.1004
334.065	12.3763
336.957	13.2554
339.85	13.3175
342.743	13.5761
345.635	14.6222
348.528	14.6292
351.421	14.632
354.313	13.8123
357.206	12.4332
360.099	11.7462
362.991	10.2187
365.884	9.33722
368.777	8.26342
371.67	7.30371
374.562	5.47387
377.455	5.08264
380.348	4.5145
383.24	4.29971
386.133	4.54677
389.026	3.30196
391.918	2.07795
394.811	0.674637
397.704	0.407806
400.596	0.491272
403.489	0.766945
406.382	0.014404
409.275	0.276428
412.167	2.3176
415.06	4.5481
417.953	6.22112
420.845	7.90981
423.738	8.70602
426.631	10.237
429.524	8.6485
432.416	6.52145
435.309	5.55839
438.202	5.41668
441.094	5.05213
443.987	5.46212
446.88	6.55752
449.772	8.17492
452.665	11.7804
455.558	15.3178
458.45	20.2241
461.343	24.3008
464.236	28.2775
467.129	32.2741
470.021	33.538
472.914	29.2977
475.807	22.5862
478.699	16.6694
481.592	12.3318
484.485	10.3876
487.377	8.46608
490.27	6.326
493.163	4.38563
496.055	2.88021
498.948	1.43077
501.841	0.873138
504.734	0.071636
507.626	0.329788
510.519	0.470921
513.412	0.180542
516.304	0.228767
519.197	0.35482
522.09	0.446819
524.982	0.247108
527.875	1.23953
530.768	0.7938
533.661	0.961754
536.553	1.32467
539.446	1.67812
542.339	1.0553
545.231	1.59391
548.124	2.14943
551.017	1.62695
553.909	2.30973
556.802	2.20367
559.695	2.17604
562.588	2.38707
565.48	2.17007
568.373	2.25753
571.266	0.87764
574.158	1.69592
577.051	1.67427
579.944	0.947594
582.837	0.506424
585.729	0.815418
588.622	0.249245
591.515	0.617004
594.407	0.615879
597.3	0.978905
600.193	0.54385
603.085	0.096031
605.978	0.929131
608.871	0.930878
611.764	1.12598
614.656	1.02052
617.549	0.975689
620.442	1.33213
623.334	1.70596
626.227	1.23631
629.12	1.00321
632.012	1.10005
634.905	2.74285
637.798	2.25105
640.69	3.15283
643.583	3.35809
646.476	3.40777
649.369	4.6872
652.261	5.90024
655.154	7.1083
658.047	7.23736
660.939	7.06384
663.832	6.91005
666.725	6.0137
669.617	5.23505
672.51	4.15197
675.403	3.61562
678.295	2.42293
681.188	1.81976
684.081	2.11095
686.974	1.4422
689.866	1.20543
692.759	0.430485
695.652	0.132679
698.544	0.009575
701.437	0.38184
704.33	0.1227
707.222	0.083656
710.115	0.124638
713.008	0.359898
715.901	0.274364
718.793	0.517208
721.686	0.30571
724.579	0.284386
727.471	0.039654
730.364	0.473553
733.257	0.116867
736.149	0.072586
739.042	0.975651
741.935	1.05938
744.828	1.60388
747.72	1.64385
750.613	2.86048
753.506	3.57646
756.398	4.10548
759.291	5.09254
762.184	5.18435
765.077	5.40759
767.969	4.16068
770.862	2.86106
773.755	2.83011
776.647	2.21639
779.54	1.60684
782.433	1.14626
785.325	1.80201
788.218	1.57082
791.111	1.86141
794.003	1.42251
796.896	1.33616
799.789	1.82897
802.682	1.09242
805.574	1.89133
808.467	1.75474
811.36	1.92645
814.252	2.12831
817.145	1.96296
820.038	1.39251
822.93	2.29153
825.823	2.82047
828.716	2.1151
831.609	2.72893
834.501	2.83329
837.394	3.59971
840.287	2.44411
843.179	2.68833
846.072	3.00618
848.965	3.47177
851.857	3.50893
854.75	3.20206
857.643	3.38299
860.535	2.93381
863.428	3.49655
866.321	2.76862
869.214	3.29903
872.106	2.60634
874.999	2.40161
877.892	2.44892
880.784	1.67354
883.677	1.62558
886.57	1.15705
889.462	1.08133
892.355	0.757572
895.248	0.565907
898.141	0.96817
901.033	0.021498
903.926	0.597878
906.819	0.184519
909.711	0.215242
912.604	0.358757
915.497	0.187164
918.389	0.237513
921.282	0.220303
924.175	0.58408
927.068	0.273472
929.96	0.249622
932.853	0.068604
935.746	0.05312
938.638	0.407249
941.531	0.647591
944.424	0.301517
947.317	0.075121
950.209	0.279684
953.102	0.18367
955.995	0.297569
958.887	1.21987
961.78	1.04116
964.673	1.44019
967.565	0.918077
970.458	1.21745
973.351	1.47871
976.243	1.97388
979.136	2.2475
982.029	2.11807
984.922	2.80742
987.814	2.51572
990.707	2.31898
993.6	1.4994
996.492	0.977533
999.385	1.42519
1002.28	1.32812
1005.17	1.94049
1008.06	1.7201
1010.96	3.13238
1013.85	3.55268
1016.74	2.83831
1019.63	3.35659
1022.53	3.59424
1025.42	3.64938
1028.31	3.85062
1031.2	4.01159
1034.1	4.77603
1036.99	5.81878
1039.88	6.50083
1042.78	8.37477
1045.67	8.37211
1048.56	8.80876
1051.45	8.48474
1054.35	6.88729
1057.24	4.90442
1060.13	3.98606
1063.02	2.52291
1065.92	1.17691
1068.81	0.814857
1071.7	0.301239
1074.6	0.240402
1077.49	0.074314
1080.38	0.64259
1083.27	0.851646
1086.17	0.752865
1089.06	0.474331
1091.95	1.43405
1094.84	0.885723
1097.74	1.41073
1100.63	2.18065
1103.52	1.7129
1106.41	1.76613
1109.31	1.62707
1112.2	2.16335
1115.09	1.21658
1117.99	1.53772
1120.88	0.765755
1123.77	0.954506
1126.66	0.999836
1129.56	0.95715
1132.45	0.627254
1135.34	0.54594
1138.23	0.785355
1141.13	0.063358
1144.02	0.409748
1146.91	0.4221
1149.81	0.334278
1152.7	0.257828
1155.59	0.59341
1158.48	1.46621
1161.38	1.36878
1164.27	1.51857
1167.16	2.19711
1170.05	2.44776
1172.95	1.58347
1175.84	1.46864
1178.73	1.49847
1181.62	0.504677
1184.52	1.69141
1187.41	0.835541
1190.3	1.07587
1193.2	0.913177
1196.09	0.924591
1198.98	0.748825
1201.87	0.382629
