Measurement: Raman, 785 nm, unoriented, Raman Data Processed
Mineral: Raite
Rruff sample: R060854
Ideal chemistry: Na_3_Mn^2+^_3_Ti^4+^_0.25_Si_8_O_20_(OH)_2_10H_2_O
Locality: Mount Kurnasurt, Lovozero Massif, Kola Peninsula, USSR
Source: Michael Scott
Description: Tufts of tan fibers associated with manganoneptunite, R130094, and orthoclase
Raman shift (cm-1)	intensity
179.863	0
182.756	42.5212
185.649	67.3777
188.542	1.80395
191.434	27.3374
194.327	65.5386
197.22	59.7707
200.112	49.9514
203.005	49.8057
205.898	58.7574
208.791	41.4885
211.683	33.64
214.576	55.1431
217.469	28.942
220.361	25.79
223.254	37.5707
226.147	30.5742
229.04	11.1514
231.932	27.9906
234.825	25.0132
237.718	23.2346
240.61	53.8412
243.503	22.5885
246.396	18.9617
249.288	48.0844
252.181	40.0627
255.074	77.3469
257.966	20.4801
260.859	17.2502
263.752	32.4916
266.645	29.5998
269.537	22.4421
272.43	40.8008
275.323	8.48352
278.215	29.2739
281.108	9.82629
284.001	21.1085
286.894	23.6719
289.786	4.6936
292.679	67.1974
295.572	40.8329
298.464	27.3596
301.357	70.3164
304.25	73.8936
307.142	91.3175
310.035	61.791
312.928	29.3079
315.82	64.4277
318.713	52.5619
321.606	32.9465
324.499	53.8121
327.391	46.8982
330.284	91.3894
333.177	112.191
336.069	58.8237
338.962	56.7269
341.855	64.0094
344.748	42.9707
347.64	70.1363
350.533	44.2454
353.426	52.895
356.318	34.2123
359.211	18.6948
362.104	56.5404
364.996	52.8362
367.889	43.0437
370.782	57.7463
373.675	23.3165
376.567	44.0992
379.46	9.84753
382.353	60.8937
385.245	26.5748
388.138	47.0354
391.031	20.9114
393.923	58.4531
396.816	48.4208
399.709	60.4973
402.601	22.4092
405.494	29.8397
408.387	51.3032
411.28	9.49548
414.172	33.6195
417.065	69.1783
419.958	22.5201
422.85	61.2837
425.743	33.635
428.636	84.4264
431.529	18.4977
434.421	23.762
437.314	34.596
440.207	21.8143
443.099	29.4589
445.992	55.3104
448.885	16.561
451.777	25.5071
454.67	4.01514
457.563	70.0494
460.455	30.734
463.348	17.4115
466.241	58.3527
469.134	45.1728
472.026	47.6312
474.919	55.7629
477.812	40.6457
480.704	23.3287
483.597	65.0491
486.49	18.8173
489.382	58.8552
492.275	13.4429
495.168	15.3517
498.061	49.5858
500.953	66.989
503.846	64.9179
506.739	27.6454
509.631	76.7733
512.524	60.4222
515.417	61.1864
518.309	102.922
521.202	73.1732
524.095	84.4895
526.988	87.9294
529.88	137.407
532.773	78.3253
535.666	56.4686
538.558	100.144
541.451	102.691
544.344	63.6038
547.236	61.21
550.129	22.5821
553.022	40.9587
555.915	62.9126
558.807	42.5258
561.7	2.87195
564.593	16.6553
567.485	3.14441
570.378	31.334
573.271	9.69263
576.163	33.8546
579.056	43.6974
581.949	29.0055
584.842	55.3313
587.734	58.6392
590.627	52.2556
593.52	50.7527
596.413	40.4948
599.305	46.8773
602.198	54.001
605.091	31.7705
607.983	18.6222
610.876	35.254
613.769	66.5542
616.661	42.4648
619.554	34.9815
622.447	54.113
625.34	44.3293
628.232	43.3431
631.125	147.925
634.018	112.575
636.91	162.653
639.803	216.131
642.696	197.318
645.588	160.041
648.481	93.8158
651.374	61.2812
654.266	48.5702
657.159	57.0858
660.052	16.527
662.945	23.3307
665.837	17.0382
668.73	1.10535
671.623	30.0809
674.515	76.6901
677.408	34.5626
680.301	39.7729
683.193	4.72034
686.086	7.28131
688.979	47.8594
691.872	50.8303
694.764	75.6976
697.657	61.3432
700.55	52.6902
703.442	104.452
706.335	85.5436
709.228	51.592
712.12	61.8788
715.013	38.5196
717.906	84.7643
720.799	87.947
723.691	30.5227
726.584	41.1009
729.477	32.9393
732.369	56.945
735.262	28.4952
738.155	32.2675
741.048	39.753
743.94	13.9687
746.833	40.9005
749.726	87.9959
752.618	93.8495
755.511	39.4964
758.404	65.6962
761.296	48.2513
764.189	64.0805
767.082	41.1265
769.975	21.2971
772.867	38.9609
775.76	42.8788
778.653	57.4694
781.545	40.2235
784.438	65.5177
787.331	55.176
790.223	80.3193
793.116	56.5748
796.009	51.9181
798.902	22.531
801.794	8.98486
804.687	13.2639
807.58	31.3473
810.472	9.00403
813.365	9.99579
816.258	32.3784
819.15	62.8028
822.043	30.5491
824.936	23.3149
827.828	55.4038
830.721	57.0902
833.614	125.237
836.507	87.4579
839.399	85.7145
842.292	140.934
845.185	141.479
848.077	122.037
850.97	80.4687
853.863	104.647
856.755	74.3578
859.648	36.3269
862.541	41.5439
865.434	64.1782
868.326	26.0008
871.219	11.5306
874.112	10.4805
877.004	21.682
879.897	20.5018
882.79	26.9855
885.683	26.3119
888.575	29.2023
891.468	5.53473
894.361	14.9158
897.253	15.8195
900.146	7.09979
903.039	40.1467
905.931	17.8996
908.824	70.3526
911.717	77.0468
914.61	20.6041
917.502	78.656
920.395	55.0474
923.288	16.597
926.18	29.6769
929.073	20.8139
931.966	7.48022
934.859	25.0181
937.751	56.5144
940.644	52.5705
943.537	72.9377
946.429	63.5455
949.322	36.2848
952.215	73.4942
955.107	79.2034
958	38.6681
960.893	62.877
963.785	52.5261
966.678	16.6159
969.571	102.329
972.464	37.6979
975.356	64.7272
978.249	113.733
981.142	90.1254
984.034	101.071
986.927	106.488
989.82	29.8113
992.712	41.8638
995.605	62.1428
998.498	114.745
1001.39	48.1026
1004.28	86.2724
1007.18	88.122
1010.07	48.3749
1012.96	43.0306
1015.85	44.0844
1018.75	71.6793
1021.64	18.5818
1024.53	11.8231
1027.42	21.4348
1030.32	35.3956
1033.21	14.2376
1036.1	38.5832
1039	12.3087
1041.89	32.2072
1044.78	79.5781
1047.67	105.067
1050.57	51.9761
1053.46	15.7718
1056.35	67.204
1059.24	44.8471
1062.14	28.3691
1065.03	6.45801
1067.92	35.7861
1070.82	33.9198
1073.71	34.3115
1076.6	24.3691
1079.49	41.3076
1082.39	35.6024
1085.28	1.02387
1088.17	32.2987
1091.06	29.692
1093.96	38.0132
1096.85	26.6567
1099.74	22.3187
1102.63	17.3752
1105.53	54.0225
1108.42	55.4072
1111.31	47.2677
1114.21	83.3675
1117.1	3.02478
1119.99	124.884
1122.88	86.1806
1125.78	133.2
1128.67	168.168
1131.56	214.868
1134.45	211.437
1137.35	227.407
1140.24	267.076
1143.13	283.293
1146.03	254.516
1148.92	249.229
1151.81	238.867
1154.7	245.726
1157.6	264.079
1160.49	233.338
1163.38	139.521
1166.28	223.758
1169.17	75.2288
1172.06	82.4119
1174.95	65.9047
1177.85	30.9814
1180.74	16.2288
1183.63	39.4731
1186.52	1.70483
1189.42	37.059
1192.31	13.3448
1195.2	17.7313
1198.09	18.3815
1200.99	50.8779
1203.88	61.244
1206.77	23.4895
1209.66	150.118
1212.56	159.962
1215.45	146.133
1218.34	178.57
1221.24	248.174
1224.13	200.679
1227.02	186.489
1229.91	183.452
1232.81	147.967
1235.7	83.4568
1238.59	17.6737
