Measurement: Raman, 532 nm, unoriented, Raman Data Processed
Mineral: Raite
Rruff sample: R060854
Ideal chemistry: Na_3_Mn^2+^_3_Ti^4+^_0.25_Si_8_O_20_(OH)_2_10H_2_O
Locality: Mount Kurnasurt, Lovozero Massif, Kola Peninsula, USSR
Source: Michael Scott
Description: Tufts of tan fibers associated with manganoneptunite, R130094, and orthoclase
Raman shift (cm-1)	intensity
149.968	0
152.861	1.42847
155.753	49.6721
158.646	61.136
161.539	90.9409
164.431	177.643
167.324	102.791
170.217	68.0562
173.109	50.8477
176.002	46.6621
178.895	46.6641
181.788	123.987
184.68	117.001
187.573	40.2451
190.466	187.577
193.358	148.706
196.251	128.61
199.144	86.1167
202.036	79.2481
204.929	154.609
207.822	175.564
210.714	194.756
213.607	100.568
216.5	97.4902
219.393	149.172
222.285	69.0483
225.178	53.5259
228.071	84.4297
230.963	58.2998
233.856	41.9219
236.749	62.6499
239.642	21.2588
242.534	41.0664
245.427	55.166
248.32	74.7388
251.212	73.481
254.105	11.7266
256.998	51.3023
259.89	79.666
262.783	58.0679
265.676	10.5591
268.568	38.1108
271.461	42.4644
274.354	33.9956
277.247	58.5474
280.139	81.2764
283.032	115.383
285.925	14.6035
288.817	60.9097
291.71	35.127
294.603	11.9683
297.495	14.6328
300.388	15.6465
303.281	56.0557
306.174	81.6494
309.066	96.8052
311.959	68.6992
314.852	20.9595
317.744	29.0337
320.637	10.2305
323.53	35.9321
326.422	28.1748
329.315	44.0308
332.208	137.254
335.101	115.978
337.993	66.7539
340.886	136.173
343.779	75.6255
346.671	74.8062
349.564	97.5991
352.457	196.856
355.349	219.187
358.242	115.057
361.135	183.236
364.027	149.435
366.92	198.603
369.813	119.393
372.706	103.27
375.598	104.036
378.491	169.387
381.384	141.684
384.276	111.007
387.169	174.065
390.062	95.708
392.954	177.409
395.847	71.4849
398.74	97.0923
401.633	12.2222
404.525	41.5757
407.418	131.698
410.311	27.6675
413.203	56.9902
416.096	100.504
418.989	48.042
421.881	48.2324
424.774	70.8262
427.667	58.8691
430.56	49.5156
433.452	33.2681
436.345	76.8843
439.238	86.8926
442.13	9.75098
445.023	107.925
447.916	73.9385
450.808	30.1841
453.701	8.84424
456.594	17.7852
459.486	8.58887
462.379	7.4165
465.272	54.8579
468.165	16.4346
471.057	96.4707
473.95	109.489
476.843	105.455
479.735	71.4043
482.628	61.7607
485.521	28.2871
488.413	41.96
491.306	6.44238
494.199	12.8135
497.092	33.6748
499.984	48.5625
502.877	12.8481
505.77	137.271
508.662	150.288
511.555	185.424
514.448	208.463
517.341	185.987
520.233	189.731
523.126	221.136
526.019	308.532
528.911	289.696
531.804	332.777
534.697	209.684
537.589	187.562
540.482	176.222
543.375	179.628
546.268	211.498
549.16	166.474
552.053	107.199
554.946	94.2607
557.838	120.539
560.731	74.1621
563.624	50.6895
566.516	63.0044
569.409	96.144
572.302	12.4233
575.194	60.8398
578.087	25.6338
580.98	0.253418
583.872	45.7935
586.765	61.9775
589.658	25.7378
592.551	41.4985
595.443	117.317
598.336	19.8799
601.229	45.0557
604.121	24.7578
607.014	151.35
609.907	53.6152
612.799	23.1616
615.692	82.7988
618.585	80.6953
621.477	123.982
624.37	181.337
627.263	97.9937
630.156	106.329
633.048	187.336
635.941	243.844
638.834	300.827
641.726	295.122
644.619	349.841
647.512	325.456
650.404	287.315
653.297	263.295
656.19	166.391
659.083	226.655
661.975	190.833
664.868	183.964
667.761	192.76
670.653	145.528
673.546	153.896
676.439	162.409
679.332	240.333
682.224	147.759
685.117	172.913
688.01	116.891
690.902	102.87
693.795	142.976
696.688	102.559
699.58	45.6113
702.473	50.3799
705.366	57.2139
708.259	1.46094
711.151	34.7959
714.044	35.8506
716.937	39.5918
719.829	31.1909
722.722	49.5
725.615	94.4717
728.507	110.767
731.4	4.50439
734.293	15.228
737.185	81.3965
740.078	79.4448
742.971	30.1226
745.864	98.583
748.756	43.5693
751.649	17.5044
754.542	66.4619
757.434	129.421
760.327	89.1113
763.22	0.764648
766.112	92.3638
769.005	115.626
771.898	102.115
774.79	82.4204
777.683	102.038
780.576	117.007
783.469	86.1011
786.361	137.319
789.254	170.445
792.147	158.343
795.039	128.376
797.932	155.509
800.825	44.7822
803.717	46.625
806.61	12.0713
809.503	46.3594
812.396	66.8926
815.288	105.255
818.181	75.5898
821.074	202.959
823.966	150.27
826.859	299.014
829.752	517.921
832.644	551.134
835.537	697.416
838.43	775.148
841.323	788.659
844.215	843.216
847.108	714.981
850.001	588.121
852.893	496.864
855.786	341.882
858.679	232.343
861.571	141.708
864.464	48.5293
867.357	137.366
870.25	70.4824
873.142	67.2695
876.035	26.1797
878.928	56.9531
881.82	0.317383
884.713	1.77539
887.606	18.0303
890.498	73.9014
893.391	100.096
896.284	70.3984
899.177	35.2246
902.069	87.832
904.962	1.23242
907.855	25.498
910.747	33.4365
913.64	7.87109
916.533	91.7578
919.425	13.5723
922.318	141.587
925.211	158.118
928.104	72.6904
930.996	213.584
933.889	123.174
936.782	115.297
939.674	119.195
942.567	78.084
945.46	6.2959
948.352	36.6719
951.245	92.8838
954.138	22.7246
957.03	78.1016
959.923	67.6777
962.816	14.4131
965.709	84.5039
968.601	60.1943
971.494	49.4219
974.387	38.0928
977.279	85.7705
980.172	168.355
983.065	103.373
985.957	148.176
988.85	53.9688
991.743	70.8252
994.635	116.873
997.528	179.876
1000.42	154.357
1003.31	125.226
1006.21	109.394
1009.1	43.5732
1011.99	92.7666
1014.88	187.485
1017.78	3.89648
1020.67	12.7588
1023.56	91.8936
1026.45	90.917
1029.35	23.0791
1032.24	73.9443
1035.13	68.2978
1038.03	91.4717
1040.92	80.0068
1043.81	58.1562
1046.7	19.4082
1049.6	70.6123
1052.49	53.7031
1055.38	167.152
1058.28	27.5469
1061.17	135.46
1064.06	50.3232
1066.95	45.2441
1069.85	9.37207
1072.74	42.126
1075.63	16.6387
1078.52	85.3184
1081.42	80.2578
1084.31	33.6855
1087.2	98.5332
1090.09	154.934
1092.99	102.302
1095.88	110.857
1098.77	170.228
1101.66	110.379
1104.56	131.201
1107.45	154.672
1110.34	191.207
1113.24	14.6055
1116.13	64.7471
1119.02	48.1562
1121.91	101.353
1124.81	36.1348
1127.7	79.3584
1130.59	89.8008
1133.48	49.3047
1136.38	121.198
1139.27	13.8457
1142.16	6.98144
1145.06	13.8877
1147.95	14.8574
1150.84	153.474
1153.73	71.7002
1156.63	105.42
1159.52	46.3262
1162.41	79.9707
1165.31	39.499
1168.2	20.7598
1171.09	7.19141
1173.98	75.6465
1176.88	67.7519
1179.77	80.2295
1182.66	100.205
1185.55	31.5303
1188.45	55.002
1191.34	14.2871
1194.23	4.33789
1197.12	65.8408
1200.02	114.378
1202.91	97.4121
1205.8	111.296
1208.69	108.882
1211.59	137.529
1214.48	150.779
1217.37	27.9082
1220.27	82.5371
1223.16	7.46973
1226.05	129.519
1228.94	37.1397
1231.84	47.084
1234.73	130.179
1237.62	82.7256
1240.52	89.6348
1243.41	43.7998
1246.3	167.811
1249.19	29.6387
1252.09	119.123
1254.98	71.3828
1257.87	43.3613
1260.76	54.8877
1263.66	22.5137
1266.55	33.0127
1269.44	7.09668
1272.33	139.958
1275.23	179.227
1278.12	78.2568
1281.01	35.0645
1283.9	55.2891
1286.8	4.00098
