Measurement: Raman, 780 nm, unoriented, Raman Data Processed
Mineral: Ramdohrite
Rruff sample: R100190
Ideal chemistry: Pb_5.9_Fe_0.1_Mn_0.1_In_0.1_Cd_0.2_Ag_2.8_Sb_10.8_S_24_
Locality: Potosi, Bolivia
Source: William W Pinch
Description: Type sample. Unconsolidated steel-gray fragments associated with elongated zinkenite. This sample is primarily andorite VI mixed with andorite IV, as pointed out by Donnay and Donnay (1954).
Raman shift (cm-1)	intensity
191.368	0
194.261	3.35399
197.153	1.48741
200.046	1.99924
202.939	1.60459
205.831	1.20705
208.724	0.889732
211.617	0.720688
214.509	3.15585
217.402	6.33438
220.295	12.6747
223.188	13.763
226.08	21.5882
228.973	25.266
231.866	29.0144
234.758	35.0873
237.651	40.117
240.544	39.1239
243.436	43.6949
246.329	42.8958
249.222	39.798
252.114	41.3812
255.007	40.608
257.9	42.7988
260.793	42.2784
263.685	41.7901
266.578	44.4494
269.471	45.3803
272.363	47.2552
275.256	47.7331
278.149	44.6884
281.041	43.3976
283.934	39.1461
286.827	34.9799
289.719	28.898
292.612	22.4245
295.505	16.0994
298.398	9.96188
301.29	13.8097
304.183	15.4807
307.076	20.1173
309.968	27.7667
312.861	34.9276
315.754	42.8171
318.647	49.5408
321.539	56.2693
324.432	54.874
327.325	50.5629
330.217	46.1577
333.11	43.9255
336.003	36.2954
338.895	31.0306
341.788	20.1302
344.681	8.50025
347.574	4.44979
350.466	1.7017
353.359	0.125191
356.252	1.28154
359.144	0.333233
362.037	0.992031
364.93	1.03342
367.822	1.33816
370.715	0.558296
373.608	0.268726
376.5	1.2512
379.393	1.32247
382.286	1.91904
385.179	0.812037
388.071	2.85453
390.964	3.67007
393.857	2.65065
396.749	2.19107
399.642	4.42758
402.535	3.75124
405.427	3.21145
408.32	4.01157
411.213	3.38908
414.106	4.20652
416.998	3.5046
419.891	5.32964
422.784	1.64768
425.676	3.25701
428.569	3.12537
431.462	3.41626
434.354	3.42716
437.247	0.871664
440.14	1.34428
443.033	1.20721
445.925	2.78905
448.818	3.58216
451.711	1.45198
454.603	2.70321
457.496	1.74439
460.389	3.29063
463.281	1.87589
466.174	2.51826
469.067	3.19837
471.959	0.420092
474.852	0.268665
477.745	0.159664
480.638	0.008736
483.53	1.53847
486.423	2.14911
489.316	0.676054
492.208	1.11751
495.101	0.230867
497.994	1.17374
500.887	1.5627
503.779	3.68479
506.672	3.18947
509.565	0.651804
512.457	0.603485
515.35	0.961046
518.243	1.73387
521.135	2.57414
524.028	2.06511
526.921	0.00992
529.813	2.7669
532.706	1.73804
535.599	0.996868
538.492	1.37662
541.384	2.22106
544.277	1.3256
547.17	1.32555
550.062	1.56819
552.955	0.918337
555.848	2.6931
558.74	1.1742
561.633	2.61984
564.526	1.86974
567.418	1.5665
570.311	1.96598
573.204	2.67837
576.097	2.04709
578.989	2.6359
581.882	1.93927
584.775	1.7334
587.667	2.01787
590.56	1.56218
593.453	2.05007
596.346	0.862057
599.238	1.40825
602.131	2.42172
605.024	0.976711
607.916	0.241297
610.809	1.84342
613.702	1.4758
616.594	0.089312
619.487	2.38354
622.38	0.101383
625.273	1.59293
628.165	0.148779
631.058	0.47621
633.951	2.2853
636.843	0.581795
639.736	0.499324
642.629	1.95155
645.521	1.37276
648.414	0.501231
651.307	1.52098
654.199	0.754959
657.092	2.82474
659.985	3.95877
662.878	2.04766
665.77	3.31896
668.663	2.32184
671.556	2.66177
674.448	4.01302
677.341	0.916555
680.234	2.63172
683.126	2.95542
686.019	1.09456
688.912	1.20678
691.805	1.50043
694.697	2.05843
697.59	0.185095
700.483	0.274575
703.375	0.490257
706.268	0.148654
709.161	0.342331
712.053	0.33269
714.946	1.92644
717.839	1.38893
720.731	1.84683
723.624	2.40215
726.517	1.69599
729.41	1.53028
732.302	1.63846
735.195	2.03439
738.088	1.4101
740.98	1.39613
743.873	2.47113
746.766	2.20073
749.659	1.41799
752.551	1.5472
755.444	2.71859
758.337	2.24233
761.229	1.02722
764.122	0.740044
767.015	2.04994
769.907	1.54891
772.8	0.312985
775.693	1.95027
778.586	1.51665
781.478	2.65539
784.371	0.264218
787.264	0.488919
790.156	2.42377
793.049	0.31095
795.942	0.719336
798.834	1.384
801.727	1.09044
804.62	1.0625
807.513	4.09178
810.405	3.85388
813.298	7.3629
816.191	6.50752
819.083	6.33509
821.976	3.6973
824.869	1.16845
827.761	2.2052
830.654	0.284729
833.547	1.29542
836.439	1.44042
839.332	1.24427
842.225	0.905385
845.118	0.599476
848.01	0.923136
850.903	2.22932
853.796	1.62699
856.688	0.81938
859.581	2.24085
862.474	1.01423
865.366	1.95674
868.259	2.58462
871.152	2.20464
874.044	1.67336
876.937	1.70896
879.83	0.165391
882.723	2.08818
885.615	1.14188
888.508	2.42243
891.401	2.04347
894.293	0.425995
897.186	2.59364
900.079	1.78827
902.971	3.1629
905.864	1.96808
908.757	2.18519
911.65	2.92863
914.542	0.768663
917.435	0.116821
920.328	2.82579
923.22	1.29588
926.113	2.13038
929.006	1.72669
931.899	2.62246
934.791	0.658189
937.684	1.84504
940.577	1.02659
943.469	2.50313
946.362	0.925217
949.255	2.15645
952.147	0.357267
955.04	2.90164
957.933	0.013836
960.825	2.8528
963.718	1.10866
966.611	2.82907
969.504	1.50575
972.396	1.87757
975.289	0.745225
978.182	1.75766
981.074	0.988541
983.967	0.040355
986.86	1.1745
989.752	0.567736
992.645	2.62004
995.538	2.0486
998.431	0.876685
1001.32	1.81177
1004.22	1.65264
1007.11	2.01608
1010	0.116397
1012.89	1.81865
1015.79	0.488562
1018.68	2.60323
1021.57	3.21771
1024.46	0.452502
1027.36	0.041461
1030.25	3.06301
1033.14	0.443971
1036.04	0.986912
1038.93	3.55515
1041.82	2.31284
1044.71	1.46662
1047.61	0.75727
1050.5	2.97693
1053.39	1.86542
1056.29	2.64358
1059.18	2.03592
1062.07	3.44938
1064.96	2.10989
1067.86	1.51179
1070.75	2.34437
1073.64	0.135501
1076.53	1.50479
1079.43	2.2903
1082.32	1.05521
1085.21	3.15782
1088.1	0.086947
1091	2.55741
1093.89	2.43628
1096.78	0.256752
1099.67	2.31806
1102.57	2.04975
1105.46	1.24308
1108.35	0.870329
1111.25	0.505648
1114.14	0.674788
1117.03	1.79664
1119.92	0.916028
1122.82	2.1562
1125.71	1.51418
1128.6	0.556574
1131.49	2.26373
1134.39	1.60964
1137.28	0.678745
1140.17	1.83427
1143.07	2.36225
1145.96	1.39446
1148.85	0.831461
1151.74	1.61817
1154.64	1.0807
1157.53	1.56864
1160.42	1.96971
1163.31	1.91868
1166.21	2.18888
1169.1	2.88608
1171.99	1.87265
1174.88	1.68956
1177.78	1.74972
1180.67	2.45413
1183.56	0.934965
1186.46	2.12942
1189.35	4.09621
1192.24	3.22065
1195.13	1.43805
1198.03	2.17796
1200.92	1.59872
1203.81	2.3262
1206.7	1.26405
1209.6	2.35684
1212.49	2.29013
1215.38	2.04603
1218.28	2.65844
1221.17	2.31761
1224.06	2.32278
1226.95	4.05232
1229.85	2.04659
1232.74	1.43075
1235.63	2.32401
1238.53	3.66546
1241.42	2.38922
1244.31	3.64364
1247.2	3.4587
1250.1	3.56174
1252.99	2.33113
1255.88	2.47391
1258.77	3.58067
1261.67	2.7322
1264.56	1.85387
1267.45	3.88251
1270.34	3.19713
1273.24	1.88878
1276.13	1.20334
1279.02	1.93866
1281.91	3.76316
1284.81	0
