Measurement: Raman, 532 nm, unoriented, Raman Data Processed
Mineral: Ramdohrite
Rruff sample: R100190
Ideal chemistry: Pb_5.9_Fe_0.1_Mn_0.1_In_0.1_Cd_0.2_Ag_2.8_Sb_10.8_S_24_
Locality: Potosi, Bolivia
Source: William W Pinch
Description: Type sample. Unconsolidated steel-gray fragments associated with elongated zinkenite. This sample is primarily andorite VI mixed with andorite IV, as pointed out by Donnay and Donnay (1954).
Raman shift (cm-1)	intensity
175.406	0
178.298	2.79852
181.191	4.92781
184.084	3.57172
186.976	1.24162
189.869	3.11879
192.762	3.63119
195.655	1.87672
198.547	1.5e-05
201.44	0.366043
204.333	0.944855
207.225	0.396088
210.118	0.870728
213.011	2.14827
215.904	4.03879
218.796	10.7246
221.689	13.9593
224.582	18.164
227.474	25.0303
230.367	33.1176
233.26	38.9899
236.152	46.9885
239.045	50.7499
241.938	58.386
244.831	57.4452
247.723	60.5813
250.616	62.6948
253.509	63.6666
256.401	63.6963
259.294	65.2785
262.187	66.7361
265.079	70.6117
267.972	72.211
270.865	76.2829
273.758	72.9585
276.65	73.6143
279.543	67.5938
282.436	63.6838
285.328	62.8375
288.221	62.0609
291.114	59.3077
294.007	55.8395
296.899	49.0328
299.792	46.638
302.685	48.3758
305.577	55.9535
308.47	63.5164
311.363	77.5534
314.255	91.9678
317.148	109.06
320.041	121.56
322.933	125.836
325.826	117.127
328.719	105.738
331.612	98.5434
334.504	96.0193
337.397	89.0519
340.29	82.9955
343.183	59.8623
346.075	38.5434
348.968	22.7225
351.861	11.9149
354.753	5.05173
357.646	0.924477
360.539	0.38784
363.431	0.418854
366.324	2.62212
369.217	0.493378
372.11	1.67728
375.002	2.23588
377.895	0.729668
380.788	0.58815
383.68	1.61805
386.573	0.87616
389.466	1.57896
392.358	1.89075
395.251	3.99681
398.144	3.30703
401.036	4.45264
403.929	6.19016
406.822	5.7724
409.715	6.11986
412.607	6.78819
415.5	7.28192
418.393	6.21497
421.285	8.68384
424.178	6.17448
427.071	5.87097
429.964	6.44448
432.856	3.82208
435.749	5.30432
438.642	3.92165
441.534	3.85768
444.427	1.86874
447.32	2.54443
450.212	4.71493
453.105	6.0834
455.998	2.4893
458.891	0.698631
461.783	4.15356
464.676	2.67433
467.569	4.44721
470.461	2.68364
473.354	0.835094
476.247	2.36097
479.139	1.47121
482.032	0.561718
484.925	0.993477
487.818	3.11643
490.71	0.930359
493.603	0.391342
496.496	0.721924
499.388	2.48457
502.281	1.07574
505.174	1.68443
508.067	3.03422
510.959	0.406883
513.852	0.395161
516.745	0.414524
519.637	1.05043
522.53	1.13155
525.423	2.56078
528.316	0.392418
531.208	2.31017
534.101	1.02869
536.994	0.35096
539.886	0.694641
542.779	1.58587
545.672	0.916851
548.564	1.72996
551.457	1.15165
554.35	1.00078
557.242	1.57854
560.135	1.62363
563.028	0.984154
565.921	1.38315
568.813	1.00679
571.706	1.95732
574.599	3.02529
577.491	0.967499
580.384	1.04716
583.277	1.12922
586.17	2.57057
589.062	1.99323
591.955	1.31797
594.848	1.57174
597.74	0.307442
600.633	2.18608
603.526	1.32132
606.418	0.303986
609.311	0.943275
612.204	2.16939
615.097	0.905331
617.989	0.631779
620.882	1.87955
623.775	0.00013
626.667	2.14455
629.56	1.0915
632.453	1.30288
635.346	1.01038
638.238	2.32603
641.131	1.54813
644.024	1.5391
646.916	2.78474
649.809	1.5799
652.702	1.08358
655.594	1.98412
658.487	0.927612
661.38	3.18
664.273	1.12135
667.165	1.23329
670.058	1.34629
672.951	1.78509
675.843	1.93409
678.736	2.55607
681.629	0.415833
684.521	2.2966
687.414	1.04544
690.307	0.360943
693.199	1.5333
696.092	0.849941
698.985	0.288326
701.878	0.011856
704.77	0.894764
707.663	0.643932
710.556	0.871517
713.448	0.31221
716.341	0.610012
719.234	1.05465
722.127	1.03063
725.019	0.997799
727.912	2.52819
730.805	0.522808
733.697	1.66584
736.59	0.799896
739.483	1.77051
742.375	1.05399
745.268	1.58533
748.161	2.10529
751.054	1.07084
753.946	1.22503
756.839	1.85366
759.732	2.28185
762.625	1.80098
765.517	1.5443
768.41	0.695972
771.303	1.76282
774.195	0.867912
777.088	1.36689
779.981	2.16128
782.873	1.38445
785.766	2.94248
788.659	0.084309
791.552	0.500648
794.444	2.62129
797.337	1.23787
800.23	0.193336
803.122	1.67512
806.015	1.76327
808.908	1.78829
811.8	0.265984
814.693	1.74682
817.586	2.48591
820.479	1.33203
823.371	2.02301
826.264	0.350464
829.157	2.10937
832.049	2.12495
834.942	1.0418
837.835	0.829716
840.727	1.96013
843.62	1.933
846.513	1.07752
849.405	0.915401
852.298	0.844189
855.191	1.03211
858.084	1.80241
860.976	3.04272
863.869	2.13765
866.762	2.04958
869.654	2.03058
872.547	2.52918
875.44	2.86112
878.333	1.8246
881.225	1.28547
884.118	1.14415
887.011	0.4161
889.903	2.22231
892.796	2.22883
895.689	2.35176
898.582	1.27042
901.474	0.018101
904.367	2.37436
907.26	1.51949
910.152	2.95838
913.045	2.55521
915.938	2.10995
918.83	2.56683
921.723	0.555258
924.616	1.63006
927.509	1.99327
930.401	2.39709
933.294	2.40344
936.187	2.84386
939.079	1.93263
941.972	0.465425
944.865	2.7874
947.757	1.19479
950.65	1.82649
953.543	2.33214
956.436	1.307
959.328	0.500858
962.221	2.03175
965.114	0.899506
968.006	1.11034
970.899	1.11697
973.792	1.66478
976.684	2.22286
979.577	0.03405
982.47	1.92728
985.362	0.667919
988.255	0.864246
991.148	1.14253
994.041	0.228357
996.933	0.780214
999.826	0.455074
1002.72	0.452457
1005.61	1.44607
1008.5	0.886591
1011.4	1.05053
1014.29	1.30552
1017.18	0.863773
1020.08	1.19009
1022.97	2.06147
1025.86	0.657829
1028.75	2.59145
1031.65	2.56699
1034.54	0.76893
1037.43	0.031425
1040.32	2.92322
1043.22	0.401623
1046.11	0.543869
1049	1.55783
1051.89	1.52521
1054.79	0.381128
1057.68	0.162542
1060.57	1.01003
1063.47	1.07809
1066.36	1.10987
1069.25	1.95718
1072.14	0.695259
1075.04	1.82599
1077.93	0.108641
1080.82	1.81619
1083.71	2.3295
1086.61	0.578962
1089.5	0.757048
1092.39	1.04655
1095.29	0.620714
1098.18	2.40077
1101.07	1.1132
1103.96	0.784039
1106.86	0.758074
1109.75	0.295757
1112.64	1.49304
1115.53	0.460363
1118.43	0.888931
1121.32	1.69006
1124.21	0.079159
1127.11	1.88593
1130	2.13914
1132.89	0.644367
1135.78	1.4032
1138.68	0.532932
1141.57	0.549822
1144.46	1.73076
1147.35	1.32052
1150.25	1.31795
1153.14	1.21323
1156.03	2.96785
1158.92	1.68881
1161.82	2.25014
1164.71	2.58137
1167.6	0.259214
1170.5	0.545065
1173.39	0.547926
1176.28	2.09688
1179.17	1.49182
1182.07	2.51909
1184.96	2.56925
1187.85	2.26716
1190.74	1.44276
1193.64	1.28317
1196.53	1.50727
1199.42	2.75821
1202.32	1.66742
1205.21	3.10168
1208.1	2.33921
1210.99	1.66945
1213.89	1.21147
1216.78	2.17209
1219.67	2.08699
1222.56	0.429764
1225.46	2.71584
1228.35	1.57248
1231.24	1.33932
1234.13	1.07561
1237.03	0.916412
1239.92	1.55724
1242.81	2.44832
1245.71	1.73747
1248.6	0.745996
1251.49	2.10649
1254.38	0.678848
1257.28	1.67342
1260.17	0.767702
1263.06	1.29638
1265.95	1.86988
1268.85	1.81597
1271.74	1.33295
1274.63	1.44755
1277.53	3.17805
1280.42	1.40617
1283.31	1.3028
1286.2	1.64679
1289.1	1.80765
1291.99	2.39639
1294.88	0.143042
1297.78	1.87229
1300.67	1.07189
