Measurement: Raman, 532 nm, unoriented, Raman Data Processed
Mineral: Ramsdellite
Rruff sample: R050552
Ideal chemistry: Mn^4+^O_2_
Locality: Lake Valley, Sierra County, New Mexico, USA
Source: Dave Bunk Minerals
Description: Black bladed crystals
Measured chemistry: (Mn^4+^_0.98_Al_0.02_)_Σ=1_(O_1.98_(OH)_0.02_)_Σ=2_
Raman shift (cm-1)	intensity
175.696	0
178.589	49.9611
181.482	10.5361
184.374	3.20624
187.267	36.4816
190.16	31.0483
193.052	27.6297
195.945	24.4153
198.838	37.928
201.731	77.8182
204.623	34.3036
207.516	29.0613
210.409	28.943
213.301	9.98145
216.194	9.76593
219.087	18.6464
221.979	56.7275
224.872	12.7102
227.765	0.898193
230.657	10.6599
233.55	15.2136
236.443	26.3742
239.336	27.3202
242.228	18.5365
245.121	41.584
248.014	36.4985
250.906	29.3527
253.799	52.3328
256.692	68.2363
259.584	49.0687
262.477	34.1229
265.37	59.7036
268.263	16.0172
271.155	50.2194
274.048	40.0807
276.941	16.7054
279.833	17.4249
282.726	11.4773
285.619	17.911
288.512	20.502
291.404	30.4861
294.297	6.9071
297.19	7.31335
300.082	25.3599
302.975	46.6896
305.868	18.4648
308.76	42.3656
311.653	22.9456
314.546	6.30273
317.438	27.7965
320.331	11.653
323.224	20.5737
326.117	4.00391
329.009	10.6178
331.902	15.8274
334.795	21.7081
337.687	18.458
340.58	17.0679
343.473	14.2756
346.365	9.77881
349.258	20.4069
352.151	5.22913
355.044	42.8302
357.936	21.4889
360.829	39.0466
363.722	36.7
366.614	45.527
369.507	60.5485
372.4	101.736
375.293	38.0729
378.185	72.2715
381.078	39.9149
383.971	77.8645
386.863	32.9442
389.756	25.1465
392.649	24.246
395.541	52.3389
398.434	38.3922
401.327	22.7382
404.219	47.7103
407.112	46.1318
410.005	20.7508
412.898	52.2058
415.79	11.0073
418.683	14.1676
421.576	25.0398
424.469	10.8149
427.361	18.3318
430.254	28.3755
433.147	45.7969
436.039	17.2872
438.932	2.7832
441.825	23.8377
444.717	2.49146
447.61	20.8567
450.503	9.76135
453.396	22.7825
456.288	24.9915
459.181	1.90686
462.074	23.8419
464.966	28.7008
467.859	65.2408
470.752	34.8428
473.644	9.56372
476.537	53.0643
479.43	24.9534
482.322	1.19592
485.215	9.83557
488.108	2.45166
491.001	11.6221
493.893	4.35352
496.786	15.379
499.679	2.9054
502.571	47.8674
505.464	3.65161
508.357	62.0985
511.25	55.3528
514.142	98.0284
517.035	136.182
519.928	207.167
522.82	249.22
525.713	265.081
528.606	290.438
531.498	271.293
534.391	240.777
537.284	165.607
540.177	121.93
543.069	102.42
545.962	81.283
548.855	57.1736
551.747	36.5378
554.64	11.942
557.533	29.2438
560.425	50.7549
563.318	46.8152
566.211	26.7223
569.104	21.6704
571.996	15.9331
574.889	22.741
577.782	14.0576
580.674	10.313
583.567	11.2362
586.46	7.93665
589.352	30.4336
592.245	35.6521
595.138	19.4008
598.031	28.7604
600.923	18.2324
603.816	70.8862
606.709	92.7318
609.601	62.0192
612.494	108.816
615.387	108.295
618.279	123.43
621.172	162.567
624.065	181.457
626.958	186.374
629.85	230.329
632.743	227.358
635.636	272.558
638.528	286.119
641.421	337.93
644.314	371.259
647.207	373.691
650.099	410.185
652.992	379.892
655.885	409.739
658.777	308.54
661.67	315.089
664.563	267.113
667.455	212.835
670.348	198.479
673.241	143.652
676.134	132.019
679.026	85.7854
681.919	85.0651
684.812	43.1653
687.704	31.6351
690.597	7.50671
693.49	30.8752
696.382	1.04675
699.275	4.61035
702.168	13.676
705.061	8.48206
707.953	9.50012
710.846	18.9589
713.739	13.2605
716.631	0.837769
719.524	43.7684
722.417	41.0983
725.309	10.5063
728.202	46.1917
731.095	22.4362
733.987	66.3652
736.88	114.729
739.773	88.7983
742.666	91.9655
745.558	95.7434
748.451	138.687
751.344	123.766
754.236	140.995
757.129	105.131
760.022	122.985
762.915	116.646
765.807	83.4186
768.7	104.329
771.593	32.9385
774.485	67.4595
777.378	65.771
780.271	3.17004
783.163	0.155396
786.056	28.2635
788.949	43.7874
791.842	19.7892
794.734	10.2769
797.627	6.64282
800.52	23.5456
803.412	32.4979
806.305	3.60449
809.198	26.3615
812.091	2.28882
814.983	20.1016
817.876	51.979
820.769	20.4559
823.661	38.9828
826.554	19.9508
829.447	17.0624
832.339	46.2268
835.232	44.9413
838.125	44.6993
841.018	26.3258
843.91	72.5889
846.803	58.1525
849.696	50.809
852.588	31.5991
855.481	41.5394
858.374	14.7052
861.266	19.6659
864.159	49.0665
867.052	52.4005
869.944	23.5736
872.837	74.91
875.73	5.24609
878.623	46.9152
881.515	21.0599
884.408	35.8969
887.301	9.50598
890.193	21.2717
893.086	13.2257
895.979	56.4044
898.871	51.4637
901.764	5.60669
904.657	42.5045
907.55	3.16138
910.442	2.99048
913.335	17.0411
916.228	34.993
919.12	50.283
922.013	19.9653
924.906	18.4857
927.798	19.203
930.691	37.5409
933.584	69.9236
936.477	29.4645
939.369	29.0679
942.262	19.115
945.155	50.2496
948.047	49.2778
950.94	38.29
953.833	34.579
956.726	30.4834
959.618	25.6471
962.511	48.6674
965.404	16.4709
968.296	23.6647
971.189	15.8278
974.082	7.41919
976.974	23.7214
979.867	23.8986
982.76	3.24377
985.653	14.2471
988.545	35.1261
991.438	26.238
994.331	69.2212
997.223	34.1144
1000.12	53.9431
1003.01	41.6538
1005.9	39.9506
1008.79	17.9324
1011.69	16.8264
1014.58	13.8779
1017.47	35.4724
1020.37	1.16467
1023.26	33.8668
1026.15	22.2588
1029.04	2.11609
1031.94	18.1128
1034.83	62.0555
1037.72	25.3517
1040.61	34.2429
1043.51	14.2394
1046.4	20.8314
1049.29	19.9468
1052.18	13.0459
1055.08	22.2489
1057.97	25.8002
1060.86	24.0181
1063.76	40.0902
1066.65	39.5037
1069.54	5.45813
1072.43	44.3665
1075.33	27.9883
1078.22	20.1702
1081.11	15.6775
1084	4.33911
1086.9	33.0577
1089.79	34.3229
1092.68	4.45557
1095.58	26.0836
1098.47	34.679
1101.36	42.5718
1104.25	37.1709
1107.15	14.5929
1110.04	17.2881
1112.93	1.25085
1115.82	48.5242
1118.72	12.2301
1121.61	19.2213
1124.5	46.7621
1127.39	34.0033
1130.29	9.72949
1133.18	48.331
1136.07	1.23767
1138.97	35.4918
1141.86	40.0203
1144.75	48.9005
1147.64	32.3351
1150.54	19.7025
1153.43	20.696
1156.32	21.4347
1159.21	47.0188
1162.11	21.4711
1165	10
1167.89	38.0723
1170.79	27.953
1173.68	53.4606
1176.57	17.1942
1179.46	35.9736
1182.36	20.6229
1185.25	37.8812
1188.14	2.0072
1191.03	18.7236
1193.93	5.03418
1196.82	31.1266
1199.71	65.3648
1202.61	21.6005
1205.5	26.629
1208.39	0.813721
1211.28	21.2565
1214.18	12.7198
1217.07	14.6799
1219.96	54.7377
1222.85	17.3158
1225.75	31.0554
1228.64	24.6079
1231.53	27.1652
1234.42	26.7946
1237.32	25.3801
1240.21	40.2696
1243.1	33.7411
1246	47.8826
1248.89	17.6243
1251.78	24.2897
1254.67	46.0125
1257.57	15.2701
1260.46	55.501
1263.35	21.0947
1266.24	26.2714
1269.14	18.7455
1272.03	7.51733
1274.92	58.3676
1277.82	33.8776
1280.71	16.5193
1283.6	20.5928
1286.49	2.24573
1289.39	11.5496
1292.28	19.2737
1295.17	26.5321
1298.06	30.9562
1300.96	36.2013
