Measurement: Raman, 785 nm, unoriented, Raman Data Processed
Mineral: Ramsdellite
Rruff sample: R050552
Ideal chemistry: Mn^4+^O_2_
Locality: Lake Valley, Sierra County, New Mexico, USA
Source: Dave Bunk Minerals
Description: Black bladed crystals
Measured chemistry: (Mn^4+^_0.98_Al_0.02_)_Σ=1_(O_1.98_(OH)_0.02_)_Σ=2_
Raman shift (cm-1)	intensity
160.071	0
162.964	19.726
165.856	18.9377
168.749	46.4299
171.642	31.0571
174.534	9.49146
177.427	15.7115
180.32	3.2597
183.212	1.51685
186.105	40.6342
188.998	34.0199
191.891	35.9978
194.783	23.7974
197.676	27.9813
200.569	39.5084
203.461	42.9126
206.354	27.9965
209.247	23.3583
212.139	14.7989
215.032	22.6865
217.925	16.4343
220.818	7.78259
223.71	1.11298
226.603	9.91852
229.496	21.3569
232.388	25.9959
235.281	26.029
238.174	11.8323
241.066	15.8978
243.959	9.1601
246.852	1.70941
249.745	7.04504
252.637	9.35059
255.53	8.38464
258.423	19.9572
261.315	29.2754
264.208	28.8622
267.101	18.2538
269.993	19.7401
272.886	39.6495
275.779	4.13275
278.672	28.5811
281.564	35.0771
284.457	6.70569
287.35	13.5772
290.242	16.0278
293.135	30.6509
296.028	8.54675
298.921	22.5914
301.813	9.48096
304.706	47.0596
307.599	14.1285
310.491	20.5587
313.384	39.597
316.277	28.7336
319.169	42.1523
322.062	33.0903
324.955	2.71045
327.847	15.734
330.74	10.2683
333.633	27.96
336.526	0.52478
339.418	12.041
342.311	5.86658
345.204	17.8268
348.096	5.9054
350.989	26.4128
353.882	15.6967
356.774	15.9409
359.667	5.61883
362.56	8.71222
365.452	0.912659
368.345	2.40216
371.238	18.6426
374.131	10.1965
377.023	19.999
379.916	33.283
382.809	46.7785
385.701	46.0887
388.594	34.3369
391.487	25.7125
394.38	45.2848
397.272	37.3284
400.165	50.0889
403.058	61.1473
405.95	56.7099
408.843	59.6212
411.736	47.1652
414.628	27.6371
417.521	41.7163
420.414	27.944
423.307	4.83685
426.199	13.1713
429.092	17.8531
431.985	11.1299
434.877	18.5688
437.77	7.44153
440.663	16.253
443.555	7.88196
446.448	26.337
449.341	7.29047
452.234	39.0498
455.126	3.93024
458.019	27.4982
460.912	9.98303
463.804	10.1837
466.697	35.9239
469.59	16.7116
472.483	49.9992
475.375	38.9733
478.268	5.86639
481.161	23.494
484.053	23.72
486.946	17.4376
489.839	26.7919
492.731	27.4935
495.624	14.1402
498.517	8.5434
501.409	32.2762
504.302	30.723
507.195	23.6776
510.088	30.4758
512.98	7.31653
515.873	15.4688
518.766	36.0687
521.658	20.498
524.551	31.9862
527.444	50.6836
530.337	57.4745
533.229	72.7934
536.122	49.4048
539.015	69.665
541.907	30.9752
544.8	31.1586
547.693	2.01489
550.585	18.6371
553.478	50.2186
556.371	5.47345
559.263	45.0211
562.156	14.6804
565.049	16.1174
567.942	18.816
570.834	37.0555
573.727	20.2894
576.62	27.2647
579.512	4.1521
582.405	29.1649
585.298	31.509
588.19	8.8186
591.083	4.69232
593.976	1.19952
596.869	53.0496
599.761	82.2105
602.654	65.4419
605.547	36.72
608.439	72.6655
611.332	53.4697
614.225	56.0001
617.117	60.2734
620.01	57.2355
622.903	47.3215
625.795	71.4578
628.688	103.841
631.581	78.7459
634.474	98.0201
637.366	143.907
640.259	161.296
643.152	160.916
646.044	225.95
648.937	281.927
651.83	263.086
654.722	306.68
657.615	288.465
660.508	264.576
663.401	202.992
666.293	230.923
669.186	179.266
672.079	115.534
674.971	101.379
677.864	66.0119
680.757	62.2719
683.649	33.7186
686.542	12.6962
689.435	6.13977
692.328	0.255859
695.22	8.81439
698.113	8.16126
701.006	4.60687
703.898	37.1403
706.791	18.4736
709.684	27.3908
712.577	38.2804
715.469	16.021
718.362	34.9566
721.255	50.0505
724.147	56.262
727.04	63.0965
729.933	93.4451
732.825	123.076
735.718	103.119
738.611	155.673
741.504	151.315
744.396	211.745
747.289	234.854
750.182	261.908
753.074	252.322
755.967	251.398
758.86	210.706
761.752	206.147
764.645	189.511
767.538	129.524
770.431	116.934
773.323	107.6
776.216	83.6942
779.109	44.7943
782.001	36.4181
784.894	28.5935
787.787	60.0775
790.679	28.8919
793.572	6.22595
796.465	29.1718
799.357	18.631
802.25	6.36664
805.143	12.1887
808.036	2.73004
810.928	28.2985
813.821	43.4008
816.714	21.972
819.606	48.862
822.499	31.062
825.392	32.7234
828.284	16.9827
831.177	29.3077
834.07	7.0813
836.963	42.3457
839.855	59.5005
842.748	19.7316
845.641	42.7479
848.533	22.5148
851.426	45.5431
854.319	24.8243
857.212	12.654
860.104	3.77264
862.997	21.9264
865.89	26.3436
868.782	25.6986
871.675	51.2803
874.568	4.65472
877.46	21.0771
880.353	11.0786
883.246	26.9091
886.139	15.4154
889.031	23.2684
891.924	10.1274
894.817	9.20026
897.709	9.49371
900.602	42.5376
903.495	4.21771
906.388	34.65
909.28	39.4124
912.173	17.623
915.066	28.8602
917.958	14.3955
920.851	9.8573
923.744	28.0378
926.636	34.8002
929.529	26.4926
932.422	17.3561
935.314	31.8558
938.207	39.8279
941.1	1.59808
943.993	27.6562
946.885	8.64404
949.778	7.62763
952.671	25.8946
955.563	37.4279
958.456	11.8835
961.349	5.40094
964.241	21.0541
967.134	24.942
970.027	27.256
972.92	10.6439
975.812	30.211
978.705	6.21912
981.598	26.4929
984.49	25.429
987.383	28.1019
990.276	13.4332
993.168	13.5804
996.061	47.4493
998.954	2.66815
1001.85	23.5652
1004.74	29.3595
1007.63	25.4193
1010.52	18.1448
1013.42	8.92279
1016.31	9.18524
1019.2	15.7256
1022.1	28.7379
1024.99	35.9706
1027.88	25.3162
1030.77	30.2383
1033.67	28.4412
1036.56	39.6639
1039.45	17.5232
1042.34	11.3874
1045.24	53.5416
1048.13	19.4414
1051.02	10.6549
1053.91	45.3049
1056.81	44.983
1059.7	14.3643
1062.59	47.191
1065.49	35.5747
1068.38	6.58173
1071.27	17.5908
1074.16	40.1838
1077.06	27.2501
1079.95	34.4105
1082.84	34.7741
1085.73	32.1422
1088.63	30.8664
1091.52	45.7588
1094.41	15.4522
1097.31	17.192
1100.2	17.74
1103.09	17.416
1105.98	26.8365
1108.88	38.9386
1111.77	44.2468
1114.66	35.2696
1117.56	40.489
1120.45	41.6907
1123.34	39.999
1126.23	71.0823
1129.12	38.7215
1132.02	40.3742
1134.91	56.141
1137.8	28.8083
1140.7	6.78155
1143.59	18.3956
1146.48	16.1196
1149.37	36.5399
1152.27	37.2202
1155.16	22.6115
1158.05	18.8402
1160.94	34.426
1163.84	45.4873
1166.73	29.3409
1169.62	22.898
1172.52	0.920776
1175.41	11.5934
1178.3	4.98962
1181.19	34.4126
1184.09	42.9579
1186.98	9.61517
1189.87	26.6175
1192.77	23.9473
1195.66	27.7056
1198.55	35.1565
1201.44	35.4989
1204.34	2.55096
1207.23	27.8213
1210.12	51.6769
1213.01	11.2656
1215.91	27.7792
1218.8	11.2814
1221.69	47.3103
1224.58	16.9874
1227.48	29.1442
1230.37	17.2686
