Measurement: Raman, 780 nm, unoriented, Raman Data Processed
Mineral: Ramsbeckite
Rruff sample: R050295
Ideal chemistry: Cu^2+^_15_(S^6+^O_4_)_4_(OH)_22_6H_2_O
Locality: 79 mine, 6th level, 31 stope, Hayden, Gila County, Arizona, USA
Source: George Godas, John Callahan
Description: Greenish-blue tabular
Measured chemistry: (Cu_8.33_Zn_6.67_)_Σ=15_(S_1.00_O_4_)_4_(OH)_22_·6H_2_O ; = rim, gray phase. The core, light phase is sphalerite.
Raman shift (cm-1)	intensity
140.735	0
143.628	0.975675
146.52	0.420122
149.413	2.30762
152.306	0.143397
155.199	1.80944
158.091	0.292442
160.984	0.359526
163.877	0.918468
166.769	2.33031
169.662	0.899113
172.555	1.6925
175.447	1.44851
178.34	0.11693
181.233	0.611282
184.126	1.10084
187.018	2.64642
189.911	0.838908
192.804	1.74572
195.696	1.26679
198.589	1.54967
201.482	1.54275
204.375	2.0052
207.267	1.84877
210.16	1.18083
213.053	1.4021
215.945	2.10276
218.838	2.31356
221.731	2.91745
224.623	2.96885
227.516	1.99632
230.409	4.84035
233.302	3.73502
236.194	4.14442
239.087	4.96224
241.98	4.28959
244.872	2.7365
247.765	2.53559
250.658	3.33519
253.55	4.41083
256.443	4.05513
259.336	3.70165
262.228	2.96055
265.121	2.80093
268.014	3.15042
270.907	1.88916
273.799	2.62019
276.692	1.66097
279.585	0.09635
282.477	1.52406
285.37	0.084141
288.263	1.13039
291.156	0.278001
294.048	0.74111
296.941	0.307863
299.834	0.750145
302.726	0.241699
305.619	0.562508
308.512	0.20344
311.404	1.17491
314.297	0.903884
317.19	1.87958
320.082	0.210239
322.975	0.531503
325.868	0.635712
328.761	0.835587
331.653	1.43374
334.546	0.96239
337.439	0.32004
340.331	1.5516
343.224	0.124588
346.117	0.040294
349.01	0.980499
351.902	1.48472
354.795	0.744357
357.688	0.858115
360.58	1.3384
363.473	0.254807
366.366	1.62998
369.258	1.87322
372.151	2.99303
375.044	1.46353
377.937	2.12278
380.829	2.07986
383.722	3.05766
386.615	1.50728
389.507	2.61303
392.4	1.52512
395.293	2.66576
398.185	3.39643
401.078	2.41159
403.971	1.66837
406.863	2.18512
409.756	1.14441
412.649	1.76579
415.542	1.56986
418.434	1.43948
421.327	1.28966
424.22	1.02217
427.112	0.780016
430.005	1.08944
432.898	1.31718
435.791	2.88369
438.683	2.41068
441.576	2.97224
444.469	3.78569
447.361	4.87525
450.254	4.38509
453.147	2.16147
456.039	2.19506
458.932	3.72669
461.825	3.00199
464.717	1.47057
467.61	1.64906
470.503	2.72934
473.396	1.6124
476.288	0.863294
479.181	1.65861
482.074	0.001145
484.966	0.314411
487.859	0.085599
490.752	1.40482
493.644	0.393009
496.537	2.40629
499.43	0.405772
502.323	0.005836
505.215	1.14054
508.108	0.362037
511.001	0.889816
513.893	1.61504
516.786	0.930745
519.679	0.666265
522.572	1.08714
525.464	0.239401
528.357	1.125
531.25	0.364735
534.142	1.74697
537.035	1.02954
539.928	1.8251
542.82	1.39759
545.713	1.85648
548.606	1.28047
551.499	1.4472
554.391	2.43656
557.284	0.322123
560.177	1.21803
563.069	1.73328
565.962	0.43884
568.855	1.71892
571.747	1.01986
574.64	1.48526
577.533	1.01641
580.426	1.3973
583.318	2.21868
586.211	1.13981
589.104	3.46799
591.996	3.99221
594.889	3.53752
597.782	5.7941
600.674	4.15009
603.567	3.37802
606.46	3.86876
609.352	3.88883
612.245	3.42943
615.138	2.58398
618.031	3.42798
620.923	2.12514
623.816	1.89065
626.709	1.7782
629.601	0.119722
632.494	0.884449
635.387	0.638305
638.279	1.09987
641.172	1.44178
644.065	0.686665
646.958	0.65129
649.85	1.15644
652.743	0.586287
655.636	0.660574
658.528	1.02036
661.421	1.14427
664.314	1.98513
667.207	0.254568
670.099	0.66593
672.992	0.817087
675.885	0.775704
678.777	1.34554
681.67	0.589818
684.563	2.45394
687.455	0.852135
690.348	0.827067
693.241	1.77022
696.134	1.26199
699.026	0.06827
701.919	1.01568
704.812	0.681956
707.704	0.801522
710.597	1.23578
713.49	1.53021
716.382	1.30145
719.275	1.32188
722.168	1.03542
725.061	0.631902
727.953	1.20424
730.846	0.383687
733.739	0.772932
736.631	0.844833
739.524	0.921468
742.417	1.36898
745.309	1.83991
748.202	0.748712
751.095	2.39738
753.987	1.50279
756.88	0.358591
759.773	0.076434
762.666	1.07108
765.558	0.748704
768.451	0.460705
771.344	0.847774
774.236	0.861501
777.129	1.41198
780.022	1.18882
782.914	0.138441
785.807	1.41696
788.7	0.111897
791.593	1.82061
794.485	0.503197
797.378	1.69171
800.271	1.66928
803.163	0.88932
806.056	0.198999
808.949	0.490552
811.841	1.37861
814.734	1.73008
817.627	1.54658
820.52	1.5315
823.412	1.6549
826.305	1.65746
829.198	1.45172
832.09	0.764234
834.983	1.23821
837.876	0.912446
840.768	1.4494
843.661	0.411486
846.554	0.914239
849.447	1.56686
852.339	2.07992
855.232	2.16683
858.125	1.42434
861.017	1.65595
863.91	1.04105
866.803	0.536577
869.695	0.14905
872.588	1.09843
875.481	1.38031
878.374	1.4957
881.266	0.98169
884.159	1.23644
887.052	1.13132
889.944	0.544047
892.837	1.89598
895.73	0.031787
898.622	0.860683
901.515	0.003044
904.408	0.501327
907.301	0.47102
910.193	0.704014
913.086	0.07872
915.979	1.04741
918.871	0.408179
921.764	0.523854
924.657	1.46792
927.549	1.10969
930.442	0.421104
933.335	0.571436
936.227	0.279238
939.12	0.681469
942.013	0.637196
944.906	0.79391
947.798	0.362013
950.691	0.822879
953.584	1.34997
956.476	0.625118
959.369	0.88466
962.262	3.19634
965.154	3.81534
968.047	7.65795
970.94	11.7035
973.833	15.5559
976.725	18.9792
979.618	20.7602
982.511	17.5034
985.403	8.03895
988.296	4.1128
991.189	2.98916
994.082	4.76768
996.974	2.13485
999.867	2.23272
1002.76	1.42548
1005.65	2.40896
1008.54	1.32502
1011.44	1.01067
1014.33	1.38992
1017.22	1.61852
1020.12	1.78893
1023.01	1.99121
1025.9	1.00641
1028.79	0.052288
1031.69	1.54949
1034.58	1.39516
1037.47	0.419497
1040.37	1.19272
1043.26	2.36302
1046.15	1.41087
1049.04	1.64694
1051.94	0.808074
1054.83	2.31896
1057.72	0.919438
1060.61	1.80188
1063.51	1.53531
1066.4	0.68302
1069.29	2.40524
1072.18	1.94432
1075.08	0.558505
1077.97	1.64451
1080.86	2.04155
1083.76	1.19118
1086.65	1.13266
1089.54	1.55384
1092.43	2.71008
1095.33	2.81401
1098.22	3.56806
1101.11	4.12024
1104	5.25307
1106.9	5.03637
1109.79	4.84986
1112.68	3.20716
1115.58	3.71599
1118.47	2.80709
1121.36	3.24977
1124.25	2.80786
1127.15	1.37822
1130.04	2.66813
1132.93	1.0058
1135.82	1.82119
1138.72	1.26746
1141.61	1.54418
1144.5	2.11702
1147.39	0.111936
1150.29	0.711948
1153.18	0.598364
1156.07	0.088659
1158.96	0.789046
1161.86	1.16494
1164.75	0.728442
1167.64	1.60911
1170.54	0.393326
1173.43	0.613818
1176.32	0.823697
1179.21	1.23229
1182.11	1.46766
1185	0.958523
1187.89	0.538987
1190.79	1.64981
1193.68	0.668861
1196.57	0.879817
1199.46	1.49148
1202.36	2.22558
1205.25	0.674126
1208.14	1.22103
1211.03	1.20799
1213.93	2.04798
1216.82	0.359668
1219.71	0.119638
1222.61	1.64043
1225.5	1.66108
1228.39	0.424351
1231.28	1.67743
1234.18	0.420856
1237.07	1.6465
1239.96	1.65037
1242.85	0.061783
1245.75	1.00948
1248.64	2.58124
1251.53	0.479455
1254.42	0.683095
1257.32	1.38558
1260.21	1.97716
1263.1	1.95505
1265.99	1.39101
1268.89	1.14931
1271.78	1.46801
1274.67	2.34293
1277.57	0.7871
1280.46	0.325054
1283.35	1.33995
