Measurement: Raman, 532 nm, unoriented, Raman Data Processed
Mineral: Rankinite
Rruff sample: R140775
Ideal chemistry: Ca_3_Si_2_O_7_
Locality: Caspar quarry, Bellerberg volcano, Ettringen, Mayen, Eifel, Rhineland-Palatinate, Germany
Source: Ch. and H. Sch√§fer
Description: Colorless to gray, associated with andradite, melilite and cuspidine (R140776).
Raman shift (cm-1)	intensity
89.7832	0
93.158	17.9975
96.5328	12.4543
99.9077	6.77643
103.282	4.25577
106.657	0.558289
110.032	20.4372
113.407	12.2541
116.782	22.9013
120.157	30.6396
123.531	26.5869
126.906	31.5002
130.281	26.5105
133.656	30.5716
137.031	24.3382
140.405	25.947
143.78	19.5833
147.155	14.6596
150.53	11.9009
153.905	9.67467
157.28	12.3733
160.654	6.18088
164.029	7.25197
167.404	4.88542
170.779	5.04547
174.154	4.44791
177.528	3.79248
180.903	4.39781
184.278	5.67246
187.653	7.09225
191.028	3.09749
194.403	2.91777
197.777	3.37825
201.152	1.66782
204.527	3.64305
207.902	6.56859
211.277	7.72009
214.651	8.16109
218.026	8.67218
221.401	7.70653
224.776	6.52768
228.151	4.33281
231.525	1.30264
234.9	0.419022
238.275	0.442261
241.65	1.77554
245.025	2.22978
248.4	0.541504
251.774	1.61331
255.149	0.132309
258.524	0.441742
261.899	1.05687
265.274	0.402496
268.649	1.39623
272.023	2.56163
275.398	4.08771
278.773	3.53279
282.148	3.9117
285.523	2.80406
288.897	3.39481
292.272	6.4501
295.647	6.58426
299.022	8.82291
302.397	10.2269
305.772	9.69806
309.146	11.8257
312.521	15.2264
315.896	15.8105
319.271	15.2626
322.646	15.0371
326.02	15.389
329.395	14.7436
332.77	15.452
336.145	19.7767
339.52	21.4992
342.894	22.9757
346.269	23.4178
349.644	19.0262
353.019	13.4135
356.394	11.1159
359.769	7.48456
363.143	8.79135
366.518	6.38257
369.893	4.84195
373.268	5.5399
376.643	3.79729
380.017	3.82324
383.392	1.57544
386.767	1.37755
390.142	0.766022
393.517	0.739456
396.892	0.023026
400.266	0.223801
403.641	0.958969
407.016	0.231735
410.391	0.419769
413.766	0.855087
417.14	2.39386
420.515	3.99847
423.89	2.45399
427.265	3.20418
430.64	3.30595
434.014	4.69446
437.389	5.83818
440.764	7.56787
444.139	7.08484
447.514	8.31873
450.889	8.28888
454.263	5.84927
457.638	4.37576
461.013	4.3963
464.388	4.4256
467.763	7.79526
471.137	3.88342
474.512	4.10352
477.887	4.07037
481.262	4.15601
484.637	2.91168
488.012	1.67764
491.386	1.73129
494.761	1.3045
498.136	2.42786
501.511	3.3476
504.886	6.42978
508.26	5.52393
511.635	5.02264
515.01	4.23782
518.385	3.34579
521.76	2.96967
525.135	7.28348
528.509	8.81076
531.884	10.4712
535.259	10.8858
538.634	10.61
542.009	12.0649
545.384	11.1558
548.758	11.8401
552.133	13.6176
555.508	13.2922
558.883	7.91788
562.258	2.42194
565.632	0.785278
569.007	1.14935
572.382	0.99176
575.757	0.622162
579.132	1.04657
582.506	0.406342
585.881	1.07111
589.256	2.00369
592.631	1.56415
596.006	1.07126
599.381	2.26166
602.755	2.41953
606.13	2.15817
609.505	3.58026
612.88	7.11249
616.255	7.23755
619.63	7.521
623.004	7.84122
626.379	9.49969
629.754	9.01614
633.129	10.3679
636.504	11.9755
639.878	13.3905
643.253	18.6637
646.628	24.0999
650.003	32.2495
653.378	40.0231
656.752	49.3739
660.127	61.1264
663.502	72.5243
666.877	83.5267
670.252	92.6646
673.626	88.894
677.001	73.7183
680.376	59.4818
683.751	50.8363
687.126	43.1923
690.501	34.2188
693.875	26.5192
697.25	19.1125
700.625	15.1446
704	11.6178
707.375	8.40973
710.75	7.12311
714.124	3.72577
717.499	2.75479
720.874	3.58518
724.249	2.37213
727.624	2.88071
730.998	1.78342
734.373	0.014771
737.748	0.563599
741.123	0.669617
744.498	1.798
747.872	0.287323
751.247	1.25442
754.622	0.427155
757.997	0.918213
761.372	0.359497
764.747	0.729523
768.121	0.716339
771.496	0.354431
774.871	1.11823
778.246	1.55307
781.621	3.16797
784.995	3.44867
788.37	2.49085
791.745	3.00076
795.12	2.0816
798.495	2.21704
801.87	5.41403
805.244	5.81693
808.619	4.58063
811.994	6.23251
815.369	6.17935
818.744	6.70471
822.119	7.54092
825.493	5.32944
828.868	5.63339
832.243	5.81442
835.618	9.15082
838.993	10.3054
842.367	13.8932
845.742	17.2098
849.117	18.7632
852.492	18.4883
855.867	17.0663
859.241	14.1194
862.616	14.1186
865.991	13.7214
869.366	11.5834
872.741	12.7121
876.115	13.1881
879.49	18.2846
882.865	32.6525
886.24	53.1446
889.615	93.8622
892.99	129.389
896.364	88.9116
899.739	34.4468
903.114	13.78
906.489	7.60397
909.864	3.04248
913.239	0.28949
916.613	0.754425
919.988	3.22315
923.363	1.29645
926.738	0.290436
930.113	1.99497
933.487	5.54642
936.862	6.3515
940.237	8.86456
943.612	11.8149
946.987	12.0167
950.361	10.184
953.736	9.97897
957.111	8.63879
960.486	15.0136
963.861	16.1598
967.236	7.53549
970.61	11.138
973.985	11.046
977.36	4.08875
980.735	2.10193
984.11	2.11676
987.485	2.9725
990.859	7.8334
994.234	13.1934
997.609	20.6379
1000.98	26.4713
1004.36	29.481
1007.73	28.4696
1011.11	22.4315
1014.48	13.6589
1017.86	7.38028
1021.23	3.96121
1024.61	1.03153
1027.98	1.28967
1031.36	0.45932
1034.73	0.795441
1038.11	2.09805
1041.48	2.7236
1044.86	1.74637
1048.23	4.21066
1051.61	5.31641
1054.98	2.52435
1058.36	2.19785
1061.73	6.27188
1065.11	8.35593
1068.48	10.7257
1071.86	13.4048
1075.23	16.939
1078.6	16.4251
1081.98	17.2646
1085.35	15.5683
1088.73	14.8354
1092.1	12.5518
1095.48	8.2262
1098.85	4.72357
1102.23	3.32626
1105.6	3.24481
1108.98	0.510315
1112.35	0.280823
1115.73	0.749634
1119.1	1.63763
1122.48	2.01123
1125.85	2.06787
1129.23	1.84131
1132.6	0.104736
1135.98	1.38263
1139.35	2.89703
1142.73	2.45062
1146.1	2.13409
1149.48	1.50561
1152.85	3.8786
1156.22	4.84192
1159.6	2.4986
1162.97	2.8194
1166.35	2.7063
1169.72	2.41595
1173.1	2.13477
1176.47	2.28937
1179.85	3.07251
1183.22	2.85297
1186.6	5.11212
1189.97	4.60791
1193.35	4.40546
1196.72	6.38873
1200.1	3.53308
1203.47	3.43512
1206.85	2.57129
1210.22	3.53149
1213.6	3.34882
1216.97	1.67474
1220.35	3.42932
1223.72	4.98261
1227.1	3.05676
1230.47	1.08917
1233.85	3.19989
1237.22	1.08106
1240.6	2.85992
1243.97	3.63678
1247.35	3.82654
1250.72	4.81659
1254.1	3.98285
1257.47	6.0332
1260.85	2.19598
1264.22	7.61707
1267.59	0.679565
1270.97	2.00177
1274.34	2.31403
1277.72	2.1626
1281.09	2.00177
1284.47	1.80145
1287.84	2.74799
1291.22	3.00403
1294.59	2.13318
1297.97	2.50915
1301.34	0.001343
