Measurement: Raman, 780 nm, unoriented, Raman Data Processed
Mineral: Rankinite
Rruff sample: R140775
Ideal chemistry: Ca_3_Si_2_O_7_
Locality: Caspar quarry, Bellerberg volcano, Ettringen, Mayen, Eifel, Rhineland-Palatinate, Germany
Source: Ch. and H. Sch√§fer
Description: Colorless to gray, associated with andradite, melilite and cuspidine (R140776).
Raman shift (cm-1)	intensity
93.4884	0
96.8632	5.27899
100.238	3.96429
103.613	15.5324
106.988	11.4389
110.362	6.12973
113.737	0.142853
117.112	7.50983
120.487	6.39883
123.862	14.1269
127.237	15.213
130.611	17.0812
133.986	15.1193
137.361	15.3047
140.736	14.1242
144.111	7.57809
147.485	0.228699
150.86	3.94708
154.235	1.33933
157.61	6.66211
160.985	11.1626
164.359	12.9203
167.734	13.8754
171.109	13.875
174.484	13.5687
177.859	16.1417
181.234	17.5505
184.608	17.8179
187.983	17.2123
191.358	16.0901
194.733	15.8977
198.108	16.2401
201.482	15.967
204.857	18.4522
208.232	17.6622
211.607	16.5909
214.982	14.2662
218.357	12.4538
221.731	13.4185
225.106	11.2878
228.481	9.53036
231.856	10.9892
235.231	8.17422
238.605	11.9426
241.98	11.0734
245.355	11.8737
248.73	9.58786
252.105	8.06216
255.48	5.23737
258.854	5.82858
262.229	5.34967
265.604	5.6315
268.979	3.86969
272.354	1.76257
275.728	0.416809
279.103	0.305481
282.478	0.580139
285.853	1.51422
289.228	0.585663
292.602	0.661102
295.977	0.0354
299.352	2.02774
302.727	2.56555
306.102	3.56372
309.476	5.38165
312.851	7.4332
316.226	10.9541
319.601	10.1136
322.976	11.1074
326.351	10.2874
329.725	12.3354
333.1	15.5167
336.475	22.7076
339.85	24.4489
343.225	27.5665
346.599	30.9824
349.974	30.786
353.349	29.9359
356.724	30.0995
360.099	28.9911
363.474	25.3727
366.848	23.3756
370.223	19.4307
373.598	13.8856
376.973	9.89358
380.348	4.35971
383.722	1.97855
387.097	1.57181
390.472	1.37695
393.847	1.51993
397.222	0.535522
400.596	2.09976
403.971	5.19025
407.346	9.56152
410.721	13.3434
414.096	18.4936
417.471	23.9083
420.845	31.2196
424.22	36.8231
427.595	42.261
430.97	46.564
434.345	44.4497
437.719	45.4394
441.094	44.3717
444.469	39.37
447.844	37.1184
451.219	35.8182
454.594	30.9894
457.968	26.5955
461.343	22.5063
464.718	18.1722
468.093	16.2894
471.468	13.3696
474.842	10.1691
478.217	5.57477
481.592	4.57822
484.967	2.43765
488.342	0.248962
491.716	0.189789
495.091	0.626343
498.466	0.853699
501.841	0.701996
505.216	2.146
508.591	2.74383
511.965	5.53989
515.34	7.11002
518.715	7.1575
522.09	8.70941
525.465	6.70264
528.84	8.52387
532.214	7.13202
535.589	5.7229
538.964	7.64801
542.339	6.27841
545.713	6.74582
549.088	7.04837
552.463	8.88455
555.838	6.7355
559.213	5.24243
562.588	1.46539
565.962	1.13443
569.337	0.607361
572.712	0.026001
576.087	0.211792
579.462	0.074005
582.837	0.508484
586.211	0.308807
589.586	0.055542
592.961	2.2787
596.336	2.41769
599.711	5.93832
603.085	4.01071
606.46	4.33249
609.835	6.07893
613.21	4.58621
616.585	5.78418
619.96	4.71544
623.334	5.15399
626.709	3.8894
630.084	2.42926
633.459	4.6702
636.833	4.77534
640.208	4.04662
643.583	4.83672
646.958	5.37553
650.333	8.65508
653.708	11.3147
657.082	14.586
660.457	18.9811
663.832	23.3506
667.207	26.9781
670.582	28.6649
673.957	25.0031
677.331	20.4952
680.706	15.8145
684.081	12.9716
687.456	9.58096
690.831	9.38591
694.205	6.07047
697.58	4.24249
700.955	4.37814
704.33	3.77643
707.705	1.75243
711.079	2.43738
714.454	0.216202
717.829	0.277435
721.204	0.686966
724.579	0.490936
727.953	0.348679
731.328	0.275772
734.703	1.10698
738.078	1.74693
741.453	0.940125
744.828	3.09622
748.202	3.96129
751.577	5.33112
754.952	7.39262
758.327	7.23314
761.702	8.08022
765.077	6.65819
768.451	6.59352
771.826	7.85495
775.201	9.20065
778.576	8.22926
781.951	7.64955
785.325	7.48344
788.7	6.12985
792.075	6.78226
795.45	6.57385
798.825	5.14021
802.199	4.2168
805.574	4.21764
808.949	2.62059
812.324	3.1906
815.699	1.80994
819.073	1.06401
822.448	2.59543
825.823	1.72533
829.198	1.44177
832.573	0.883041
835.948	1.25476
839.322	2.05753
842.697	2.55048
846.072	2.09752
849.447	1.38179
852.822	0.925446
856.197	0.271637
859.571	0.468689
862.946	0.109802
866.321	0.249268
869.696	0.993835
873.071	2.89771
876.445	6.11403
879.82	12.8494
883.195	22.074
886.57	33.9152
889.945	50.1846
893.319	50.5417
896.694	27.1583
900.069	10.9087
903.444	4.42084
906.819	2.11539
910.193	1.93237
913.568	0.643311
916.943	0.257553
920.318	0.665115
923.693	0.146927
927.068	0.411392
930.442	1.31621
933.817	2.58061
937.192	3.34555
940.567	3.18786
943.942	5.0054
947.317	6.17687
950.691	6.22091
954.066	6.10102
957.441	9.14056
960.816	8.42667
964.191	7.91813
967.565	7.26935
970.94	5.91928
974.315	3.37425
977.69	1.41291
981.065	0.488823
984.439	0.776886
987.814	1.15356
991.189	0.107964
994.564	0.338692
997.939	1.63898
1001.31	2.3057
1004.69	2.44035
1008.06	2.38206
1011.44	1.67388
1014.81	1.81367
1018.19	0.123703
1021.56	0.270836
1024.94	0.234962
1028.31	0.933945
1031.69	0.391556
1035.06	1.38926
1038.44	1.20117
1041.81	1.76196
1045.19	1.42189
1048.56	2.81414
1051.94	2.8661
1055.31	2.08384
1058.68	1.56524
1062.06	2.5914
1065.43	2.78432
1068.81	2.77335
1072.18	3.4393
1075.56	3.30801
1078.93	3.28101
1082.31	2.81496
1085.68	4.01488
1089.06	3.1898
1092.43	1.9643
1095.81	0.89151
1099.18	0.304802
1102.56	0.184334
1105.93	0.166466
1109.31	1.66237
1112.68	0.303787
1116.06	0.557281
1119.43	0.03183
1122.81	0.957718
1126.18	0.385406
1129.56	1.75193
1132.93	1.6606
1136.31	2.56277
1139.68	2.32092
1143.06	3.09056
1146.43	3.08326
1149.81	3.18677
1153.18	4.08376
1156.56	4.51936
1159.93	4.30068
1163.31	4.94479
1166.68	5.02321
1170.05	6.83804
1173.43	6.62396
1176.8	7.40935
1180.18	8.17757
1183.55	7.35067
1186.93	7.315
1190.3	8.85073
1193.68	8.75503
1197.05	9.86716
1200.43	8.46025
1203.8	8.58702
1207.18	8.77875
1210.55	8.59283
1213.93	5.67232
1217.3	5.21785
1220.68	3.59502
1224.05	1.59892
1227.43	0.811218
1230.8	0.457565
1234.18	0.37059
1237.55	0.237869
1240.92	0.4375
1244.3	2.19806
1247.67	2.8969
1251.05	4.81706
1254.42	5.73738
1257.8	8.16682
1261.17	6.01582
1264.55	4.32324
1267.92	4.09975
1271.3	1.97072
1274.67	3.26312
1278.05	0.608765
1281.42	1.24213
1284.8	0
