Measurement: Raman, 780 nm, unoriented, Raman Data Processed
Mineral: Raspite
Rruff sample: R130514
Ideal chemistry: Pb^2+^W^6+^O_4_
Locality: Grand Central mine, Tombstone, Arizona, USA
Source: Bruce Murphy
Description: Elongated, prismatic-to-tabular, pale yellow-to-colorless crystals, associated with chlorargyrite, emmonsite, ottoite, quartz, and jarosite.
Measured chemistry: Pb_0.96_(W_0.57_Te_0.44_Al_0.01_)O_4_
Raman shift (cm-1)	intensity
99.3956	0
102.288	0.311584
105.181	0.209886
108.074	0.59936
110.966	1.39382
113.859	1.33354
116.752	1.86314
119.644	1.83677
122.537	1.51066
125.43	1.17926
128.322	0.979095
131.215	0.608139
134.108	0.803415
137.001	1.43659
139.893	0.750377
142.786	0.84995
145.679	0.662724
148.571	0.711496
151.464	0.616489
154.357	0.594131
157.25	0.226565
160.142	0.341991
163.035	0.170653
165.928	0.308339
168.82	0.309922
171.713	0.161276
174.606	0.664087
177.498	1.54815
180.391	1.73256
183.284	3.17039
186.177	4.30688
189.069	5.06706
191.962	5.5372
194.855	6.45314
197.747	6.30272
200.64	5.67739
203.533	6.28847
206.425	5.88178
209.318	5.90921
212.211	5.10313
215.103	4.86174
217.996	4.62498
220.889	4.44375
223.782	3.99831
226.674	4.67588
229.567	5.33709
232.46	5.17733
235.352	6.21638
238.245	6.43072
241.138	6.7371
244.03	7.03386
246.923	7.51292
249.816	7.10049
252.709	6.68542
255.601	6.67307
258.494	6.80708
261.387	5.9007
264.279	5.70497
267.172	3.87135
270.065	3.38875
272.957	2.89167
275.85	2.14924
278.743	2.03228
281.635	2.1531
284.528	2.35178
287.421	2.18605
290.314	2.18129
293.206	1.93266
296.099	2.53115
298.992	1.82178
301.884	2.00097
304.777	1.61928
307.67	0.750332
310.562	0.282642
313.455	0.471077
316.348	0.803741
319.241	0.484631
322.133	0.048214
325.026	0.669903
327.919	2.47379
330.811	4.98692
333.704	7.94962
336.597	11.0017
339.49	14.029
342.382	17.6171
345.275	20.4853
348.168	22.4016
351.06	23.6196
353.953	23.8099
356.846	24.0907
359.738	23.6237
362.631	22.5682
365.524	21.4406
368.416	19.5131
371.309	17.9366
374.202	15.6088
377.095	13.1187
379.987	12.0701
382.88	9.5245
385.773	8.23455
388.665	6.86591
391.558	4.73915
394.451	3.36267
397.344	2.58617
400.236	1.79332
403.129	2.0773
406.022	2.20541
408.914	2.01074
411.807	2.97759
414.7	3.40784
417.592	3.10129
420.485	3.82571
423.378	4.52045
426.27	4.25721
429.163	3.61448
432.056	3.24706
434.949	2.88984
437.841	2.66744
440.734	1.95541
443.627	2.02303
446.519	1.47649
449.412	1.17206
452.305	1.23667
455.197	0.240784
458.09	0.260969
460.983	0.352247
463.875	0.303288
466.768	0.223627
469.661	0.568953
472.554	0.001276
475.446	0.293705
478.339	0.322172
481.232	0.100065
484.124	0.690512
487.017	0.635061
489.91	1.25139
492.803	2.01884
495.695	1.90436
498.588	2.31013
501.481	2.21655
504.373	2.4594
507.266	2.14281
510.159	2.58795
513.051	3.03746
515.944	2.67287
518.837	2.4884
521.73	2.7339
524.622	2.56212
527.515	2.57786
530.408	2.4364
533.3	2.04639
536.193	1.55008
539.086	1.69883
541.978	1.55867
544.871	1.37572
547.764	1.55268
550.656	1.20852
553.549	1.38744
556.442	1.75186
559.335	1.29311
562.227	1.73036
565.12	1.64663
568.013	1.58175
570.905	1.93751
573.798	2.00516
576.691	1.53969
579.583	1.62837
582.476	1.70148
585.369	1.5453
588.261	1.42623
591.154	0.998678
594.047	0.814177
596.94	0.610594
599.832	0.711239
602.725	0.588608
605.618	0.22949
608.51	0.291185
611.403	0.251329
614.296	0.0732
617.188	0.052263
620.081	0.127531
622.974	0.240993
625.867	0.491602
628.759	0.482136
631.652	0.984194
634.545	0.842488
637.437	0.94708
640.33	1.14406
643.223	0.771354
646.115	0.611175
649.008	0.570197
651.901	0.419405
654.794	0.335604
657.686	0.25124
660.579	0.198544
663.472	0.151815
666.364	0.211566
669.257	0.158459
672.15	0.403614
675.043	0.982553
677.935	1.02267
680.828	1.78572
683.721	1.66886
686.613	1.84595
689.506	1.97727
692.399	1.7722
695.291	2.08308
698.184	2.19323
701.077	2.94376
703.97	3.1897
706.862	3.98751
709.755	4.87735
712.648	6.38394
715.54	7.1235
718.433	7.03867
721.326	7.86092
724.218	7.41176
727.111	6.40173
730.004	5.11448
732.896	3.8408
735.789	2.7823
738.682	1.55415
741.574	0.343298
744.467	0.285998
747.36	0.021402
750.253	0.215285
753.145	0.13857
756.038	0.195741
758.931	0.246351
761.823	0.003049
764.716	0.545267
767.609	0.842434
770.501	1.13934
773.394	1.07152
776.287	1.01762
779.18	0.8937
782.072	1.21246
784.965	0.890075
787.858	0.9437
790.75	0.864692
793.643	0.779148
796.536	0.555556
799.428	0.7998
802.321	0.456078
805.214	0.321398
808.107	0.41707
810.999	0.411066
813.892	0.510511
816.785	0.389235
819.677	0.221164
822.57	0.3379
825.463	0.170423
828.356	0.193694
831.248	0.169716
834.141	0.286071
837.034	0.130182
839.926	0.296998
842.819	0.405817
845.712	0.138522
848.604	0.424945
851.497	0.885294
854.39	1.59394
857.283	2.11333
860.175	3.07584
863.068	4.16723
865.961	5.58136
868.853	7.61238
871.746	10.1188
874.639	12.2473
877.531	13.8819
880.424	13.6135
883.317	11.664
886.209	8.88066
889.102	6.17391
891.995	4.39768
894.888	3.10892
897.78	2.14704
900.673	1.26217
903.566	1.47674
906.458	0.762603
909.351	0.436025
912.244	0.578681
915.136	0.603293
918.029	0.454146
920.922	0.157542
923.814	0.242202
926.707	0.143603
929.6	0.018682
932.493	0.191296
935.385	0.068803
938.278	0.065463
941.171	0.098297
944.063	0.003777
946.956	0.087494
949.849	0.055813
952.741	0.159178
955.634	0.192639
958.527	0.039981
961.42	0.298726
964.312	0.195918
967.205	0.415331
970.098	0.211064
972.99	0.088335
975.883	0.48125
978.776	0.563918
981.668	0.282164
984.561	0.413531
987.454	0.19818
990.347	0.647386
993.239	0.695467
996.132	0.493463
999.025	0.762547
1001.92	0.885121
1004.81	0.773338
1007.7	1.02506
1010.6	0.658224
1013.49	0.880299
1016.38	0.725675
1019.27	0.701772
1022.17	0.883783
1025.06	0.701847
1027.95	0.798948
1030.84	0.545378
1033.74	0.513306
1036.63	0.226778
1039.52	0.063693
1042.41	0.127158
1045.31	0.085628
1048.2	0.148291
1051.09	0.155902
1053.99	0.142559
1056.88	0.261765
1059.77	0.381825
1062.66	0.375364
1065.56	0.417417
1068.45	0.406072
1071.34	0.634397
1074.23	0.536306
1077.13	0.587708
1080.02	0.305893
1082.91	0.385214
1085.81	0.714069
1088.7	0.63265
1091.59	0.340988
1094.48	0.024508
1097.38	0.26412
1100.27	0.065975
1103.16	0.028252
