Measurement: Raman, 532 nm, unoriented, Raman Data Processed
Mineral: Realgar
Rruff sample: R060107
Ideal chemistry: AsS
Locality: Shimen, Hunan Province, China
Source: University of Arizona Mineral Museum
Description: Red prismatic crystals
Measured chemistry: As_0.99_S_1.01_
Raman shift (cm-1)	intensity
134.136	0
137.511	0.625047
140.886	0.836209
144.261	1.05197
147.636	1.96827
151.011	2.23088
154.385	2.02388
157.76	1.47491
161.135	1.36101
164.51	2.42633
167.885	2.05559
171.259	2.89462
174.634	3.96354
178.009	5.8016
181.384	7.58783
184.759	6.28318
188.133	6.05735
191.508	5.22223
194.883	4.48719
198.258	3.51214
201.633	3.72316
205.008	3.98703
208.382	4.76597
211.757	6.40334
215.132	7.81994
218.507	12.3348
221.882	13.4642
225.256	12.7295
228.631	15.6724
232.006	15.1015
235.381	11.8442
238.756	9.60322
242.131	8.17439
245.505	4.33592
248.88	3.08045
252.255	2.60178
255.63	1.89589
259.005	0.725927
262.38	0.394652
265.754	0.423778
269.129	0.285515
272.504	0.110538
275.879	0.144851
279.254	0.427904
282.628	0.059587
286.003	0.293498
289.378	1.41019
292.753	1.46553
296.128	1.88828
299.503	2.50995
302.877	2.81762
306.252	3.57036
309.627	4.51435
313.002	6.01833
316.377	8.12943
319.752	8.76753
323.126	9.69984
326.501	11.8057
329.876	12.8006
333.251	12.462
336.626	14.1623
340	15.2245
343.375	16.0737
346.75	15.9104
350.125	16.1488
353.5	16.3119
356.875	13.4323
360.249	12.1256
363.624	9.4343
366.999	8.34441
370.374	8.86551
373.749	7.43926
377.123	4.32059
380.498	3.56842
383.873	2.39675
387.248	1.47846
390.623	1.41986
393.998	1.31813
397.372	0.551658
400.747	0.575932
404.122	1.14035
407.497	1.05591
410.872	0.927635
414.247	0.172531
417.621	0.320361
420.996	1.21708
424.371	0.828745
427.746	1.66634
431.121	1.07252
434.495	0.062511
437.87	0.557388
441.245	0.269491
444.62	0.685723
447.995	0.185431
451.37	0.119489
454.744	0.955873
458.119	1.19213
461.494	0.80399
464.869	0.801886
468.244	0.722106
471.618	0.750746
474.993	0.792572
478.368	1.31658
481.743	0.192787
485.118	0.703811
488.493	0.063364
491.867	1.53282
495.242	0.389061
498.617	0.759788
501.992	1.23103
505.367	1.26501
508.741	0.516284
512.116	0.427972
515.491	1.11926
518.866	0.088167
522.241	0.30075
525.616	0.134346
528.99	0.221423
532.365	1.04421
535.74	0.281341
539.115	1.43453
542.49	1.21782
545.865	0.96735
549.239	0.131361
552.614	1.15643
555.989	0.838127
559.364	1.38287
562.739	0.727976
566.114	1.12401
569.488	0.869503
572.863	0.632215
576.238	1.17339
579.613	0.513573
582.987	0.362378
586.362	0.553501
589.737	1.0236
593.112	0.872535
596.487	0.493466
599.862	1.30213
603.236	0.359172
606.611	0.276832
609.986	0.354918
613.361	0.389929
616.736	0.068357
620.111	1.01329
623.485	0.575171
626.86	0.99132
630.235	0.202994
633.61	0.89232
636.985	0.319443
640.36	1.05436
643.734	0.466274
647.109	0.583742
650.484	0.632612
653.859	0.961827
657.234	0.909065
660.609	0.615518
663.983	0.819758
667.358	0.147416
670.733	0.125928
674.108	0.412957
677.482	0.656831
680.857	0.251123
684.232	1.04453
687.607	1.33526
690.982	0.217331
694.357	0.589966
697.731	1.73075
701.106	1.80929
704.481	0.932002
707.856	0.90796
711.231	1.29582
714.606	0.483456
717.98	1.08498
721.355	0.917241
724.73	0.051401
728.105	0.878806
731.48	0.76931
734.855	0.613919
738.229	1.18162
741.604	1.33394
744.979	0.797447
748.354	1.09543
751.729	0.927413
755.103	0.344205
758.478	0.785084
761.853	1.20543
765.228	1.12388
768.603	0.187033
771.977	0.753066
775.352	1.14165
778.727	1.02973
782.102	0.17487
785.477	1.05393
788.852	0.948865
792.226	0.877323
795.601	0.858214
798.976	0.370206
802.351	0.812909
805.726	1.21367
809.101	0.90841
812.475	0.876105
815.85	1.24402
819.225	0.966709
822.6	1.22134
825.975	0.021537
829.35	0.466634
832.724	0.696406
836.099	0.960313
839.474	1.07951
842.849	1.35971
846.224	0.470663
849.598	0.464121
852.973	0.802585
856.348	0.930243
859.723	0.508757
863.098	0.133749
866.472	1.79151
869.847	1.41356
873.222	0.356605
876.597	0.621897
879.972	1.20688
883.347	0.689666
886.721	0.98834
890.096	0.814605
893.471	1.5601
896.846	0.286747
900.221	0.328837
903.596	0.119981
906.97	0.755793
910.345	1.01877
913.72	0.213161
917.095	0.928547
920.47	1.14893
923.845	1.55744
927.219	0.713367
930.594	0.866663
933.969	0.482874
937.344	0.743023
940.719	1.10267
944.093	0.24638
947.468	0.419193
950.843	0.526758
954.218	1.12282
957.593	0.237677
960.967	0.544781
964.342	0.211599
967.717	0.327598
971.092	0.14233
974.467	1.03048
977.842	0.938026
981.216	0.463378
984.591	0.160883
987.966	0.95381
991.341	0.498304
994.716	0.881673
998.091	0.663232
1001.47	0.928478
1004.84	0.589936
1008.22	0.921861
1011.59	1.21323
1014.97	0.50585
1018.34	0.180387
1021.71	0.627564
1025.09	1.00409
1028.46	0.330099
1031.84	0.379411
1035.21	0.143063
1038.59	0.799006
1041.96	1.0534
1045.34	0.643849
1048.71	0.966023
1052.09	1.15448
1055.46	0.909508
1058.84	1.29624
1062.21	1.58414
1065.59	0.440085
1068.96	0.922833
1072.34	0.226926
1075.71	0.418091
1079.09	1.01014
1082.46	1.21738
1085.84	0.697056
1089.21	0.663101
1092.59	1.17639
1095.96	0.419911
1099.34	0.876894
1102.71	1.26357
1106.09	1.27864
1109.46	0.23057
1112.83	0.853148
1116.21	0.275305
1119.58	0.771297
1122.96	0.257624
1126.33	0.841115
1129.71	1.27414
1133.08	1.11647
1136.46	0.996266
1139.83	1.36262
1143.21	1.71365
1146.58	0.023315
1149.96	0.594638
1153.33	1.26007
1156.71	1.34349
1160.08	0.610376
1163.46	0.495621
1166.83	0.158034
1170.21	0.851723
1173.58	1.00008
1176.96	0.114476
1180.33	0.811086
1183.71	0.458427
1187.08	0.778018
1190.45	0.949766
1193.83	0.264506
1197.2	0.943681
1200.58	0.526724
1203.95	0.57961
1207.33	0.498314
1210.7	1.40641
1214.08	0.997993
1217.45	0.598646
1220.83	0.910769
1224.2	0.671841
1227.58	2.28632
1230.95	0.25042
1234.33	0.226053
1237.7	0.055989
1241.08	0.765353
1244.45	1.07521
1247.83	0.569875
1251.2	0.277617
1254.58	2.40156
1257.95	0.697655
1261.33	0.346979
1264.7	0.304438
1268.08	0.61299
1271.45	0.85093
1274.83	0.347713
1278.2	1.19426
1281.58	1.00545
1284.95	1.53548
1288.33	0.856892
1291.7	1.44484
1295.08	0.874342
1298.45	0.357445
1301.82	0
