Measurement: Raman, 780 nm, unoriented, Raman Data Processed
Mineral: Redledgeite
Rruff sample: R070714
Ideal chemistry: Ba(Ti^4+^_6_Cr^3+^_2_)O_16_
Locality: Red Ledge Mine, Washington, Washington District, Nevada County, California, USA
Source: Michael Scott
Description: Black acicular crystals intermixed with pale green micro-fibers, used in the Foley et al (1997) Can Min 35, 1531-1534 study. Associated with light purple clinochlore
Measured chemistry: Ba_1.15_(H_2_O)_0.93_(Ti^4+^_5.66_Cr^3+^_2.38_Fe^3+^_0.02_)_Î£=8.06_O_16_
Raman shift (cm-1)	intensity
146.04	0
148.933	58.5781
151.825	107.691
154.718	83.6719
157.611	114.871
160.503	139.32
163.396	122.93
166.289	134.445
169.181	275.859
172.074	118.004
174.967	139.223
177.859	179.176
180.752	124.383
183.645	269.504
186.538	470.594
189.43	542.637
192.323	628.738
195.216	542.328
198.108	609.508
201.001	481.953
203.894	248.914
206.786	334.371
209.679	184.867
212.572	346.387
215.465	285.781
218.357	58.5898
221.25	80.5117
224.143	185.09
227.035	24.8906
229.928	38.5859
232.821	168.832
235.714	123.992
238.606	101.125
241.499	158.156
244.392	202.336
247.284	274.981
250.177	392.152
253.07	463.981
255.962	443.539
258.855	688.496
261.748	846.867
264.64	1069.95
267.533	1265.66
270.426	958.125
273.319	1104.18
276.211	1166.98
279.104	973.723
281.997	854.035
284.889	990.641
287.782	812.062
290.675	291.148
293.567	321.965
296.46	24.543
299.353	57.4922
302.246	41.8293
305.138	56.1523
308.031	89.062
310.924	53.5195
313.816	99.2695
316.709	295.18
319.602	414.394
322.495	574.644
325.387	798.109
328.28	837.742
331.173	1242.41
334.065	1364.46
336.958	1603.51
339.851	1755.15
342.743	1814.29
345.636	2022.23
348.529	2037.17
351.421	2060.29
354.314	2146.96
357.207	1937.52
360.1	2130.82
362.992	1994.12
365.885	1827.13
368.778	1886.03
371.67	1525.41
374.563	1643.68
377.456	1595.14
380.349	1631.9
383.241	1453.54
386.134	1510.34
389.027	1313.39
391.919	1359.23
394.812	1278.1
397.705	1218.57
400.597	1185.71
403.49	1183.22
406.383	943.898
409.276	1108.77
412.168	862.379
415.061	829.469
417.954	653.934
420.846	560.551
423.739	464.012
426.632	322.871
429.524	610.129
432.417	452.894
435.31	305.551
438.202	239.82
441.095	162.184
443.988	324.742
446.881	221.18
449.773	143.606
452.666	33.9258
455.559	36.3438
458.451	26.3516
461.344	107.449
464.237	113.731
467.13	190.441
470.022	263.227
472.915	172.547
475.808	401.027
478.7	301.227
481.593	555.887
484.486	477.871
487.378	819.078
490.271	560.805
493.164	638.473
496.057	603.102
498.949	442.328
501.842	367.312
504.735	320.957
507.627	284.019
510.52	143.984
513.413	31.0859
516.305	86.0859
519.198	158.84
522.091	33.8125
524.984	18.6484
527.876	86.9648
530.769	179.629
533.662	28.3281
536.554	148.297
539.447	198.441
542.34	277.629
545.232	207.82
548.125	175.852
551.018	228.394
553.91	250.394
556.803	396.977
559.696	388.16
562.589	236.098
565.481	459.918
568.374	679.461
571.267	584.301
574.159	775.546
577.052	726.934
579.945	929.184
582.837	999.863
585.73	1032.32
588.623	1156
591.516	1042.49
594.408	1169.86
597.301	1237.33
600.194	1294.19
603.086	1010.35
605.979	789.996
608.872	687.07
611.764	683.723
614.657	369.293
617.55	369.348
620.443	102.531
623.335	65.4414
626.228	18.0469
629.121	73
632.013	118.711
634.906	15.4336
637.799	1.875
640.692	22.3164
643.584	77.6367
646.477	344.258
649.37	576.387
652.262	522.168
655.155	547.582
658.048	959.652
660.94	1021.13
663.833	1158.29
666.726	1242.38
669.619	1601.91
672.511	1506.65
675.404	1557.05
678.297	1538.48
681.189	1750.24
684.082	1527.69
686.975	1706.38
689.867	1590.36
692.76	1574.49
695.653	1510.51
698.545	1468.7
701.438	1337.56
704.331	1283.06
707.224	1386.21
710.116	1400.59
713.009	1229.62
715.902	1183.87
718.794	1200.86
721.687	804.527
724.58	835.242
727.472	705.941
730.365	888.66
733.258	733.481
736.151	711.441
739.043	713.633
741.936	523.473
744.829	596.781
747.721	562.883
750.614	417.871
753.507	301.043
756.399	311.156
759.292	46.1914
762.185	294.824
765.078	180.328
767.97	262.074
770.863	83.0156
773.756	172.043
776.648	259.574
779.541	198.656
782.434	198.609
785.327	356.359
788.219	228.164
791.112	240.832
794.005	182.676
796.897	210.07
799.79	60.8477
802.683	137.242
805.575	125.203
808.468	247.727
811.361	79.5664
814.254	105.121
817.146	89.2227
820.039	107.273
822.932	90.6836
825.824	186.465
828.717	116.289
831.61	75.3398
834.502	82.6367
837.395	66.5348
840.288	39.1406
843.181	42.8203
846.073	120.305
848.966	73.2812
851.859	73.375
854.751	192.117
857.644	65.7812
860.537	130.574
863.429	5.81641
866.322	4.16797
869.215	64.3125
872.107	34.8711
875	138.195
877.893	173.508
880.786	130.668
883.678	45.8203
886.571	67.0469
889.464	206.094
892.356	286.414
895.249	321.551
898.142	280.938
901.034	304.594
903.927	225.723
906.82	80.0703
909.713	11.332
912.605	356.137
915.498	174.844
918.391	209.172
921.283	250.402
924.176	56.9961
927.069	133.512
929.962	30.5039
932.854	233.406
935.747	165.387
938.64	267.34
941.532	265.391
944.425	150.859
947.318	197.211
950.21	244.129
953.103	290.75
955.996	206.422
958.889	183.41
961.781	251.863
964.674	88.6172
967.567	22.6641
970.459	128.223
973.352	59.457
976.245	6.59766
979.137	82.375
982.03	219.176
984.923	10.2578
987.816	3.39062
990.708	192.918
993.601	51.7852
996.494	78.3281
999.386	165.559
1002.28	58.0664
1005.17	205.902
1008.06	165.152
1010.96	179.418
1013.85	39.9844
1016.74	6.50781
1019.63	140.359
1022.53	256.809
1025.42	350.504
1028.31	297.043
1031.21	397.996
1034.1	360.66
1036.99	493.191
1039.88	357.305
1042.78	447.438
1045.67	308.957
1048.56	495.832
1051.45	494.625
1054.35	538.141
1057.24	409.133
1060.13	293.539
1063.03	325.055
1065.92	277.894
1068.81	490.363
1071.7	365.484
1074.6	430.293
1077.49	523.438
1080.38	372.688
1083.28	259.644
1086.17	215.488
1089.06	184.797
1091.95	343.664
1094.85	7.53906
1097.74	6.02344
1100.63	0.929688
1103.52	31.168
1106.42	229.945
1109.31	21.9219
1112.2	7.00391
1115.09	10.2148
1117.99	38.1836
1120.88	85.1602
1123.77	129
1126.66	169.102
1129.56	258.324
1132.45	83.7109
1135.34	255.934
1138.24	258.481
1141.13	369.984
1144.02	408.062
1146.91	208.941
1149.81	227.223
1152.7	198.512
1155.59	227.269
1158.48	368.203
1161.38	355.367
1164.27	361.711
1167.16	448.422
1170.06	447.801
1172.95	432.684
1175.84	616.836
1178.73	517.781
1181.63	401.106
1184.52	438.324
1187.41	559.652
1190.3	491.148
1193.2	235.336
1196.09	260.164
1198.98	263.414
1201.88	396.27
1204.77	240.762
1207.66	260.59
1210.55	174.191
1213.45	232.051
1216.34	138.906
1219.23	214.302
1222.12	155.031
1225.02	69.3828
1227.91	78.2422
1230.8	17.6211
1233.69	42.7617
1236.59	57.6133
1239.48	125.984
1242.37	222.34
1245.27	196.828
1248.16	103.125
1251.05	53.3906
1253.94	47.8047
1256.84	233.672
1259.73	0.417865
1262.62	150.496
1265.52	279.062
1268.41	173.856
1271.3	273.844
1274.19	137.777
1277.09	106.676
1279.98	1.46094
