Measurement: Raman, 532 nm, unoriented, Raman Data Processed
Mineral: Redledgeite
Rruff sample: R070714
Ideal chemistry: Ba(Ti^4+^_6_Cr^3+^_2_)O_16_
Locality: Red Ledge Mine, Washington, Washington District, Nevada County, California, USA
Source: Michael Scott
Description: Black acicular crystals intermixed with pale green micro-fibers, used in the Foley et al (1997) Can Min 35, 1531-1534 study. Associated with light purple clinochlore
Measured chemistry: Ba_1.15_(H_2_O)_0.93_(Ti^4+^_5.66_Cr^3+^_2.38_Fe^3+^_0.02_)_Î£=8.06_O_16_
Raman shift (cm-1)	intensity
150.983	0
153.875	18.3999
156.768	82.2422
159.661	48.314
162.554	135.941
165.446	19.8179
168.339	20.3481
171.232	100.473
174.124	175.774
177.017	191.75
179.91	188.005
182.803	305.978
185.695	362.683
188.588	395.384
191.481	504.833
194.373	485.716
197.266	408.336
200.159	330.689
203.051	290.36
205.944	204.704
208.837	168.694
211.729	127.067
214.622	63.9141
217.515	31.6711
220.407	21.6204
223.3	3.10303
226.193	22.6277
229.086	23.7639
231.978	61.5576
234.871	51.7293
237.764	55.7307
240.656	21.3462
243.549	114.787
246.442	190.37
249.334	278.234
252.227	309.943
255.12	397.789
258.013	526.972
260.905	570.207
263.798	639.871
266.691	667.665
269.583	759.611
272.476	779.762
275.369	790.544
278.262	744.63
281.154	657.054
284.047	559.821
286.94	412.235
289.832	408.457
292.725	259.059
295.618	124.343
298.51	78.3198
301.403	20.1384
304.296	5.31494
307.188	2.14429
310.081	0.543457
312.974	42.8313
315.867	9.6709
318.759	92.1834
321.652	210.183
324.545	205.418
327.437	344.235
330.33	550.775
333.223	619.261
336.115	649.532
339.008	666.069
341.901	698.494
344.794	727.308
347.686	776.28
350.579	821.985
353.472	777.631
356.364	851.42
359.257	784.407
362.15	725.426
365.043	681.062
367.935	676.682
370.828	639.312
373.721	614.255
376.613	605.655
379.506	620.04
382.399	548.859
385.291	580.87
388.184	536.732
391.077	513.716
393.969	487.369
396.862	430.758
399.755	395.554
402.648	399.898
405.54	322.269
408.433	276.564
411.326	313.454
414.218	216.502
417.111	232.824
420.004	214.726
422.897	107.028
425.789	67.8989
428.682	89.4858
431.575	6.49268
434.467	81.6841
437.36	47.8384
440.253	12.5176
443.145	42.396
446.038	39.6357
448.931	14.6621
451.824	10.3755
454.716	1.16894
457.609	25.9785
460.502	98.1069
463.394	120.456
466.287	146.2
469.18	178.418
472.072	241.293
474.965	268.931
477.858	278.157
480.75	309.494
483.643	364.18
486.536	350.472
489.429	359.894
492.321	262.337
495.214	235.25
498.107	154.756
500.999	97.1558
503.892	70.6108
506.785	68.4282
509.678	36.855
512.57	6.396
515.463	48.939
518.356	1.62402
521.248	52.3013
524.141	30.8179
527.034	24.2446
529.926	94.1929
532.819	150.635
535.712	201.156
538.604	265.472
541.497	254.73
544.39	244.569
547.283	243.454
550.175	263.063
553.068	270.525
555.961	337.505
558.853	409.954
561.746	464.906
564.639	601.702
567.531	705.549
570.424	827.102
573.317	849.31
576.21	882.817
579.102	888.243
581.995	866.575
584.888	918.598
587.78	869.244
590.673	815.341
593.566	910.322
596.458	758.79
599.351	665.781
602.244	545.007
605.136	384.687
608.029	208.714
610.922	124.825
613.815	3.4917
616.707	39.2192
619.6	142.844
622.493	114.885
625.385	215.421
628.278	141.839
631.171	14.4917
634.063	161.208
636.956	310.614
639.849	545.006
642.742	813.611
645.634	1098.6
648.527	1449.27
651.42	1788.35
654.312	2164.06
657.205	2511.77
660.098	2742.85
662.99	2964.95
665.883	3216.35
668.776	3476.95
671.669	3489.21
674.561	3616.92
677.454	3644.64
680.347	3551.11
683.239	3446.3
686.132	3374.31
689.025	3199.84
691.918	3086.67
694.81	3026.79
697.703	2818.26
700.596	2766.65
703.488	2646.8
706.381	2544.29
709.274	2388.23
712.166	2360.83
715.059	2102.59
717.952	2030.04
720.845	1873.86
723.737	1792.73
726.63	1734.31
729.523	1616.27
732.415	1468.92
735.308	1333.35
738.201	1198.79
741.093	1131.16
743.986	1056.69
746.879	988.331
749.771	941.969
752.664	795.711
755.557	633.325
758.45	613.832
761.342	520.556
764.235	456.446
767.128	487.674
770.02	404.03
772.913	384.131
775.806	335.672
778.698	285.92
781.591	365.076
784.484	472.372
787.377	370.029
790.269	307.018
793.162	301.483
796.055	377.685
798.947	243.211
801.84	221.808
804.733	220.472
807.625	175.246
810.518	122.611
813.411	129.185
816.304	53.7446
819.196	3.7749
822.089	24.0454
824.982	14.8672
827.874	63.3569
830.767	92.7305
833.66	114.764
836.552	97.7583
839.445	61.1558
842.338	47.7102
845.231	29.3733
848.123	18.5117
851.016	42.3301
853.909	72.9119
856.801	136.473
859.694	146.198
862.587	185.661
865.479	256.329
868.372	289.452
871.265	303.953
874.158	284.04
877.05	375.82
879.943	421.259
882.836	488.031
885.728	476.184
888.621	482.122
891.514	475.983
894.406	421.539
897.299	416.555
900.192	409.075
903.085	369.768
905.977	368.565
908.87	351.223
911.763	337.265
914.655	370.355
917.548	347.823
920.441	307.658
923.333	324.397
926.226	354.005
929.119	294.661
932.011	297.409
934.904	236.703
937.797	216.616
940.69	222.567
943.582	222.479
946.475	231.547
949.368	159.605
952.26	153.533
955.153	175.625
958.046	170.454
960.938	98.6064
963.831	142.375
966.724	133.687
969.617	124.089
972.509	79.5242
975.402	68.6666
978.295	98.785
981.187	58.2015
984.08	44.1686
986.973	42.9751
989.865	63.297
992.758	36.27
995.651	26.9325
998.544	11.9967
1001.44	55.3065
1004.33	28.501
1007.22	29.6796
1010.11	17.7501
1013.01	23.6482
1015.9	63.6567
1018.79	29.0878
1021.68	27.2826
1024.58	20.4435
1027.47	23.1665
1030.36	25.7854
1033.26	72.0935
1036.15	35.8395
1039.04	9.86414
1041.93	10.156
1044.83	7.79529
1047.72	24.5292
1050.61	11.0503
1053.51	46.6754
1056.4	0.831543
1059.29	48.4131
1062.18	8.77417
1065.08	32.9637
1067.97	85.969
1070.86	12.0433
1073.75	3.45276
1076.65	32.6625
1079.54	3.41553
1082.43	38.9918
1085.33	9.0105
1088.22	9.3551
1091.11	23.8132
1094	52.9712
1096.89	5.3916
1099.79	28.1648
1102.68	21.184
1105.57	33.2444
1108.47	24.9836
1111.36	52.9083
1114.25	1.23254
1117.14	20.479
1120.04	56.5944
1122.93	9.1792
1125.82	65.9694
1128.71	40.0255
1131.61	38.3136
1134.5	57.6178
1137.39	74.6495
1140.29	59.6818
1143.18	46.9365
1146.07	32.9804
1148.96	66.1219
1151.86	48.6668
1154.75	25.838
1157.64	3.73877
1160.54	10.8398
1163.43	10.2618
1166.32	6.20691
1169.21	43.619
1172.11	0.86145
1175	52.1554
1177.89	1.22742
1180.78	25.5486
1183.68	28.9423
1186.57	28.1063
1189.46	66.5647
1192.35	25.168
1195.25	32.6429
1198.14	35.9637
1201.03	35.1641
1203.92	40.0676
1206.82	63.1755
1209.71	19.2231
1212.6	55.9685
1215.5	28.2625
1218.39	15.7656
1221.28	57.1797
1224.17	46.8213
1227.07	51.9141
1229.96	76.3603
1232.85	64.467
1235.74	44.5576
1238.64	36.971
1241.53	65.7876
1244.42	41.1763
1247.32	48.8948
1250.21	39.3755
1253.1	20.3701
1255.99	38.3574
1258.89	5.33203
1261.78	51.9849
1264.67	19.3975
1267.57	43.8472
1270.46	12.907
1273.35	8.05396
1276.24	29.616
1279.13	28.9912
1282.03	78.1296
1284.92	55.9646
1287.81	24.5071
1290.71	14.2075
1293.6	3.19971
