Measurement: Raman, 532 nm, unoriented, Raman Data Processed
Mineral: Reevesite
Rruff sample: R070678
Ideal chemistry: Ni^2+^_6_Fe^3+^_2_C^4+^O_3_(OH)_16_4H_2_O
Locality: Otway Prospect, Nullagine Region, Western Australia, Australia
Source: Michael Scott
Description: Massive, golden-brown veinlet; associated with chrysotile/serpentine
Raman shift (cm-1)	intensity
158.13	0
161.023	14.5239
163.916	170.523
166.809	37.4424
169.701	101.667
172.594	120.249
175.487	85.2104
178.379	165.681
181.272	220.997
184.165	133.546
187.057	189.505
189.95	264.798
192.843	182.758
195.736	216.218
198.628	261.369
201.521	224.789
204.414	179.435
207.306	149.355
210.199	40.2559
213.092	64.3345
215.984	64.4146
218.877	14.7637
221.77	22.2822
224.662	5.80176
227.555	3.35498
230.448	56.5278
233.341	13.0664
236.233	12.4424
239.126	8.06787
242.019	13.2095
244.911	12.999
247.804	131.172
250.697	61.0532
253.589	76.2988
256.482	33.2183
259.375	52.0493
262.268	162.737
265.16	94.4219
268.053	112.228
270.946	100.353
273.838	78.5493
276.731	149.48
279.624	137.526
282.517	122.66
285.409	105.893
288.302	139.458
291.195	118.037
294.087	130.874
296.98	125.268
299.873	144.902
302.765	112.028
305.658	135.262
308.551	153.745
311.443	167.607
314.336	107.277
317.229	127.821
320.122	169.125
323.014	121.397
325.907	184.053
328.8	154.507
331.692	138.308
334.585	64.5259
337.478	197.779
340.37	114.456
343.263	110.628
346.156	182.685
349.049	178.883
351.941	231.778
354.834	224.919
357.727	207.357
360.619	205.133
363.512	211.379
366.405	220.432
369.298	178.554
372.19	199.612
375.083	159.34
377.976	137.902
380.868	138.18
383.761	147.285
386.654	119.736
389.546	62.4116
392.439	78.7153
395.332	30.1104
398.224	68.1289
401.117	42.1777
404.01	18.4165
406.902	14.5215
409.795	16.0395
412.688	11.7798
415.581	25.5337
418.473	12.7866
421.366	30.4575
424.259	89.7481
427.151	32.8648
430.044	14.6509
432.937	0.931641
435.829	46.0938
438.722	52.1509
441.615	64.8804
444.508	38.3291
447.4	103.174
450.293	19.7373
453.186	7.36572
456.078	134.257
458.971	130.181
461.864	117.643
464.757	102.778
467.649	51.311
470.542	53.0132
473.435	148.117
476.327	49.1221
479.22	10.9243
482.113	20.853
485.005	55.522
487.898	8.58252
490.791	11.4634
493.683	92.3711
496.576	59.73
499.469	103.102
502.362	45.7056
505.254	111.609
508.147	215.375
511.04	212.462
513.932	292.643
516.825	272.948
519.718	371.378
522.611	333.475
525.503	475.913
528.396	516.245
531.289	552.74
534.181	627.272
537.074	669.228
539.967	690.15
542.859	700.018
545.752	758.697
548.645	838.73
551.538	836.224
554.43	841.254
557.323	795.942
560.216	852.12
563.108	783.325
566.001	789.068
568.894	738.491
571.786	675.471
574.679	599.254
577.572	559.757
580.465	543.503
583.357	481.857
586.25	396.246
589.143	280.216
592.035	254.057
594.928	126.751
597.821	143.722
600.713	66.3716
603.606	70.8672
606.499	69.6392
609.391	7.29492
612.284	64.146
615.177	41.5552
618.07	46.5127
620.962	95.1372
623.855	20.5142
626.748	36.271
629.64	24.8149
632.533	78.7573
635.426	110.771
638.318	6.10107
641.211	173.562
644.104	161.981
646.997	185.969
649.889	218.917
652.782	236.689
655.675	275.213
658.567	245.234
661.46	273.744
664.353	301.399
667.245	391.588
670.138	446.799
673.031	374.929
675.923	441.585
678.816	355.025
681.709	372.228
684.602	369.154
687.494	351.685
690.387	256.082
693.28	273.5
696.172	230.005
699.065	195.29
701.958	147.256
704.851	160.21
707.743	104.972
710.636	123.832
713.529	14.6821
716.421	77.6973
719.314	18.5186
722.207	49.3359
725.099	1.60205
727.992	72.6943
730.885	58.9009
733.778	36.7046
736.67	26.582
739.563	85.3511
742.456	13.4248
745.348	21.2031
748.241	7.30811
751.134	58.7905
754.026	45.0708
756.919	20.667
759.812	100.843
762.705	83.3696
765.597	132.851
768.49	87.5391
771.383	136.241
774.275	207.779
777.168	201.181
780.061	175.814
782.953	216.84
785.846	123.265
788.739	190.716
791.631	188.323
794.524	136.436
797.417	179.746
800.31	215.147
803.202	138.886
806.095	132.863
808.988	94.4404
811.88	110.182
814.773	126.313
817.666	60.896
820.558	134.049
823.451	101.088
826.344	63.7295
829.237	88.9092
832.129	36.0147
835.022	62.4795
837.915	79.6733
840.807	24.0581
843.7	74.1465
846.593	9.87451
849.486	79.1904
852.378	30.6753
855.271	109.366
858.164	35.8213
861.056	6.89404
863.949	52.6465
866.842	73.3037
869.734	15.7383
872.627	31.8223
875.52	30.3315
878.413	7.70019
881.305	45.2295
884.198	3.67529
887.091	54.4707
889.983	11.752
892.876	54.6958
895.769	36.02
898.661	1.50537
901.554	63.8711
904.447	30.1514
907.34	60.3765
910.232	45.3691
913.125	39.2978
916.018	22.8608
918.91	50.1787
921.803	29.7544
924.696	112.38
927.588	107.455
930.481	83.8516
933.374	32.7573
936.266	88.3398
939.159	15.4453
942.052	77.7168
944.945	4.25732
947.837	9.97607
950.73	22.9062
953.623	10.5415
956.515	19.0723
959.408	10.854
962.301	25.0742
965.193	32.3984
968.086	28.9502
970.979	18.2866
973.872	61.9727
976.764	71.5102
979.657	66.3911
982.55	29.3247
985.442	40.1294
988.335	78.6016
991.228	40.4448
994.12	60.811
997.013	45.396
999.906	43.3369
1002.8	58.8398
1005.69	58.8149
1008.58	39.2617
1011.48	3.43799
1014.37	13.8252
1017.26	44.0806
1020.15	38.5879
1023.05	41.7803
1025.94	53.873
1028.83	67.6802
1031.73	35.8276
1034.62	47.5347
1037.51	62.855
1040.4	24.8584
1043.3	15.54
1046.19	68.1636
1049.08	43.8877
1051.97	81.4673
1054.87	142.414
1057.76	84.9189
1060.65	45.3667
1063.55	70.9551
1066.44	23.5981
1069.33	26.5894
1072.22	79.6577
1075.12	77.0044
1078.01	86.1309
1080.9	66.3242
1083.79	82.2471
1086.69	56.5591
1089.58	33.7158
1092.47	123.772
1095.37	1.86231
1098.26	58.2685
1101.15	75.0571
1104.04	51.2539
1106.94	80.8237
1109.83	64.418
1112.72	9.96729
1115.61	48.2363
1118.51	104.982
1121.4	61.126
1124.29	44.1401
1127.18	37.9692
1130.08	37.231
1132.97	12.9038
1135.86	0.14209
1138.76	10.1099
1141.65	33.6948
1144.54	36.25
1147.43	90.2949
1150.33	57.3706
1153.22	29.5977
1156.11	45.5962
1159	49.4985
1161.9	44.2173
1164.79	10.2671
1167.68	71.6284
1170.58	79.5356
1173.47	92.21
1176.36	25.6567
1179.25	34.0977
1182.15	14.1792
1185.04	39.126
1187.93	70.5537
1190.82	38.8765
1193.72	26.6055
1196.61	56.2188
1199.5	9.09082
1202.39	116.986
1205.29	43.2148
1208.18	17.1777
1211.07	145.019
1213.97	27.333
1216.86	55.5581
1219.75	40.0698
1222.64	2.41602
1225.54	62.0381
1228.43	64.4966
1231.32	34.9175
1234.21	37.4595
1237.11	71.1196
1240	16.772
1242.89	75.9912
1245.79	9.35986
1248.68	49.6807
1251.57	49.3818
1254.46	49.0166
1257.36	85.5776
1260.25	67.8223
1263.14	49.2446
1266.03	26.8398
1268.93	44.0981
1271.82	43.7285
1274.71	23.8218
1277.61	47.3638
1280.5	80.5854
1283.39	81.3828
1286.28	95.3232
1289.18	76.6582
1292.07	26.5391
1294.96	59.813
1297.85	48.0527
1300.75	23.9248
1303.64	0
