Measurement: Raman, 780 nm, unoriented, Raman Data Processed
Mineral: Reevesite
Rruff sample: R070678
Ideal chemistry: Ni^2+^_6_Fe^3+^_2_C^4+^O_3_(OH)_16_4H_2_O
Locality: Otway Prospect, Nullagine Region, Western Australia, Australia
Source: Michael Scott
Description: Massive, golden-brown veinlet; associated with chrysotile/serpentine
Raman shift (cm-1)	intensity
144.074	0
146.967	30.8633
149.859	63.5508
152.752	256.828
155.645	126.91
158.537	257.594
161.43	312.656
164.323	400.719
167.215	354.469
170.108	519.695
173.001	216.273
175.894	291.18
178.786	143.652
181.679	258.336
184.572	104.156
187.464	85.6211
190.357	20.832
193.25	267.711
196.143	107.211
199.035	131.379
201.928	284.156
204.821	261.844
207.713	543.234
210.606	495.359
213.499	409.953
216.392	327.016
219.284	283.336
222.177	254.719
225.07	144.023
227.962	228.676
230.855	101.18
233.748	103.723
236.64	169.352
239.533	222.871
242.426	110.227
245.319	200.606
248.211	178.344
251.104	134.379
253.997	15.5312
256.889	171.102
259.782	5.60156
262.675	253.441
265.567	175.383
268.46	149.766
271.353	450.383
274.245	390.59
277.138	277.504
280.031	429.664
282.924	519.152
285.816	551.82
288.709	811.367
291.602	904.731
294.494	937.965
297.387	863.434
300.28	734.223
303.173	638.41
306.065	569.234
308.958	426.84
311.851	364.246
314.743	292.668
317.636	257.367
320.529	43.4453
323.421	1.87109
326.314	69.5312
329.207	20.3711
332.099	20.5273
334.992	45.7852
337.885	10.9805
340.778	100.699
343.67	10.1875
346.563	12.082
349.456	195.742
352.348	89.5625
355.241	201.656
358.134	153.578
361.027	344.273
363.919	335.082
366.812	266.699
369.705	326.223
372.597	276.5
375.49	328.285
378.383	545.008
381.276	413.086
384.168	316.371
387.061	76.8828
389.954	184.519
392.846	97.8984
395.739	148.332
398.632	282.168
401.524	130.977
404.417	80.9609
407.31	116.379
410.202	113.484
413.095	179.109
415.988	94.7656
418.881	64.9805
421.773	174.695
424.666	73.6094
427.559	29.3633
430.451	108.504
433.344	75.9727
436.237	70.6289
439.13	173.828
442.022	229.781
444.915	125.949
447.808	366.293
450.7	226.019
453.593	325.918
456.486	326.426
459.378	286.926
462.271	285.91
465.164	228.945
468.057	105.969
470.949	139.125
473.842	125.082
476.735	107.113
479.627	128.262
482.52	107.801
485.413	121.172
488.305	182.129
491.198	212.281
494.091	129.453
496.983	259.434
499.876	271.769
502.769	263.961
505.662	279.664
508.554	593.484
511.447	790.828
514.34	1288.35
517.232	1635.88
520.125	2171.44
523.018	2434.1
525.91	2626.45
528.803	2202.87
531.696	1875.77
534.589	1483.94
537.481	1303.22
540.374	946.188
543.267	851.894
546.159	647.414
549.052	480.199
551.945	321.656
554.837	375.547
557.73	324.422
560.623	78.4336
563.516	246.969
566.408	130.106
569.301	66.2344
572.194	1.91797
575.086	89.9727
577.979	36.4766
580.872	129.102
583.764	26.9727
586.657	200.754
589.55	80.9219
592.443	79.4688
595.335	140.578
598.228	51.2227
601.121	169.57
604.014	53.8906
606.906	88.4414
609.799	39.8984
612.692	134.543
615.584	162.207
618.477	256.547
621.37	241.125
624.262	307.594
627.155	400.664
630.048	321.898
632.941	396.734
635.833	235.75
638.726	224.383
641.619	339.793
644.511	283.062
647.404	181.535
650.297	358.404
653.189	334.326
656.082	340.393
658.975	299.525
661.867	353.672
664.76	195.644
667.653	517.873
670.546	318.346
673.438	621.607
676.331	461.844
679.224	592.672
682.116	599.389
685.009	427.566
687.902	369.113
690.794	194.596
693.687	77.4004
696.58	119.135
699.473	29.0254
702.365	158.18
705.258	23.373
708.151	78.2383
711.043	111.26
713.936	37.7461
716.829	197.41
719.721	96.7461
722.614	173.449
725.507	65.6426
728.4	149.69
731.292	89.3496
734.185	143.207
737.078	35.5156
739.971	187.272
742.863	185.938
745.756	165.086
748.649	63.4258
751.541	149.848
754.434	178.744
757.327	122.088
760.219	39.9258
763.112	241.08
766.005	71.5078
768.898	233.955
771.79	7.39844
774.683	128.162
777.576	69.4785
780.468	106.996
783.361	33.1465
786.254	216.178
789.146	204.59
792.039	61.4082
794.932	92.2695
797.824	23.3652
800.717	88.8828
803.61	194.045
806.503	219.791
809.395	139.744
812.288	134.443
815.181	147.094
818.073	46.2129
820.966	109.264
823.859	13.1426
826.751	100.561
829.644	155.947
832.537	131.144
835.43	98.4316
838.322	229.334
841.215	261.625
844.108	158.533
847	198.85
849.893	238.664
852.786	210.33
855.678	173.037
858.571	119.988
861.464	336.576
864.357	148.625
867.249	239.141
870.142	74.9336
873.035	64.9297
875.927	100.613
878.82	190.379
881.713	119.635
884.606	1.43359
887.498	28.9395
890.391	84.8594
893.284	12.0195
896.176	53.4199
899.069	74.5918
901.962	106.644
904.854	55.3945
907.747	29.7871
910.64	20.8535
913.533	65.0254
916.425	213.404
919.318	100.9
922.211	57.6641
925.103	128.269
927.996	0.876953
930.889	97.0723
933.781	129.244
936.674	142.994
939.567	186.869
942.46	273.742
945.352	164.244
948.245	248.93
951.138	226.002
954.03	256.486
956.923	217.123
959.816	189.037
962.708	340.853
965.601	209.031
968.494	44.7852
971.386	83.7305
974.279	135.848
977.172	130.531
980.065	72.3359
982.957	60.9883
985.85	27.1895
988.743	49.0625
991.635	54.6797
994.528	87.5801
997.421	39.1113
1000.31	87.3633
1003.21	67.8223
1006.1	188.769
1008.99	77.8769
1011.88	144.699
1014.78	151.994
1017.67	148.672
1020.56	166.805
1023.46	177.144
1026.35	97.7812
1029.24	135.971
1032.13	123.484
1035.03	231.67
1037.92	190.826
1040.81	227.231
1043.7	215.82
1046.6	264.486
1049.49	322.902
1052.38	450.014
1055.28	491.574
1058.17	498.949
1061.06	389.904
1063.95	244.777
1066.85	314.5
1069.74	255.363
1072.63	241.977
1075.52	193.445
1078.42	257.967
1081.31	184.916
1084.2	239.682
1087.1	215.543
1089.99	203.844
1092.88	173.977
1095.77	170.164
1098.66	153.736
1101.56	60.0605
1104.45	46.4316
1107.34	26.2324
1110.24	30.8887
1113.13	138.106
1116.02	122.549
1118.91	15.0039
1121.81	107.838
1124.7	25.4941
1127.59	22.0527
1130.48	47.0117
1133.38	74.5312
1136.27	102.414
1139.16	87.0684
1142.06	62.9375
1144.95	8.04102
1147.84	170.559
1150.73	134.32
1153.63	146.039
1156.52	122.498
1159.41	65.0547
1162.31	112.504
1165.2	131.127
1168.09	189.195
1170.98	198.684
1173.88	176.307
1176.77	109.748
1179.66	167.389
1182.55	254.967
1185.45	133.693
1188.34	254.644
1191.23	233.18
1194.12	263.209
1197.02	207.332
1199.91	176.478
1202.8	182.221
1205.69	247.639
1208.59	272.941
1211.48	171.053
1214.37	161.709
1217.27	134.26
1220.16	78.6738
1223.05	82.5547
1225.94	49.6328
1228.84	2.60938
1231.73	100.266
1234.62	183.508
1237.52	182.164
1240.41	123.111
1243.3	56.2012
1246.19	31.4844
1249.09	76.7285
1251.98	49.0488
1254.87	10.9453
1257.76	4.94727
1260.66	95.9121
1263.55	169.807
1266.44	181.531
1269.34	126.883
1272.23	17.4648
1275.12	108.373
1278.01	66.6211
1280.91	57.416
1283.8	37.2676
