Measurement: Raman, 785 nm, unoriented, Raman Data Processed
Mineral: Reinhardbraunsite
Rruff sample: R061006
Ideal chemistry: Ca_5_(SiO_4_)_2_(OH)_2_
Locality: Bellerberg, Eifel, Germany
Source: Michael Scott
Description: Pink massive
Raman shift (cm-1)	intensity
182.275	0
185.167	14.6533
188.06	5.28369
190.953	12.8062
193.845	10.749
196.738	73.8213
199.631	103.183
202.524	121.223
205.416	41.3599
208.309	57.123
211.202	55.7568
214.094	24.394
216.987	16.273
219.88	73.5737
222.773	43.4531
225.665	47.6191
228.558	3.46973
231.451	56.0562
234.343	32.3921
237.236	102.22
240.129	104.845
243.021	86.6631
245.914	92.2437
248.807	118.04
251.7	88.3408
254.592	105.1
257.485	107.258
260.378	77.8359
263.27	84.1157
266.163	62.5474
269.056	86.9326
271.948	22.4443
274.841	2.0542
277.734	11.0488
280.627	71.103
283.519	19.8628
286.412	71.4487
289.305	61.7217
292.197	12.9517
295.09	36.7988
297.983	157.702
300.875	99.7861
303.768	162.948
306.661	168.57
309.553	158.51
312.446	81.7476
315.339	24.3814
318.231	12.5884
321.124	45.4477
324.017	53.4717
326.91	62.6973
329.802	142.935
332.695	93.0239
335.588	89.3872
338.48	10.2231
341.373	68.6626
344.266	38.5029
347.159	132.54
350.051	88.6377
352.944	207.237
355.837	197.422
358.729	171.39
361.622	53.0215
364.515	11.46
367.407	69.7617
370.3	5.65918
373.193	105.595
376.086	79.6963
378.978	128.399
381.871	52.5215
384.764	5.67188
387.656	2.82031
390.549	52.3857
393.442	96.8438
396.334	189.17
399.227	171.94
402.12	97.7275
405.012	42.6865
407.905	36.9092
410.798	28.6377
413.691	31.4414
416.583	97.8457
419.476	47.4815
422.369	77.9688
425.261	79.6602
428.154	23.3838
431.047	2.97266
433.94	34.6318
436.832	119.899
439.725	113.245
442.618	170.884
445.51	155.376
448.403	95.9853
451.296	102.105
454.188	48.1445
457.081	105.184
459.974	109.564
462.866	188.207
465.759	111.118
468.652	118.616
471.545	114.821
474.437	26.3232
477.33	65.7383
480.223	61.668
483.115	2.81836
486.008	25.6748
488.901	108.503
491.793	112.233
494.686	59.0684
497.579	76.583
500.471	51.2393
503.364	34.7158
506.257	30.3789
509.15	18.6719
512.042	91.7031
514.935	138.181
517.828	220.292
520.72	189.529
523.613	228.057
526.506	193.836
529.399	145.762
532.291	180.315
535.184	136.886
538.077	213.426
540.969	110.375
543.862	144.398
546.755	150.848
549.647	99.1123
552.54	63.0967
555.433	117.191
558.326	103.413
561.218	191.929
564.111	192.339
567.004	144.413
569.896	17.04
572.789	35.9287
575.682	2.35547
578.574	31.168
581.467	16.7021
584.36	56.4199
587.253	62.9053
590.145	29.6553
593.038	49.9365
595.931	13.0596
598.823	50.9385
601.716	65.0596
604.609	70.2441
607.501	187.166
610.394	181.792
613.287	161.059
616.179	165.942
619.072	137.483
621.965	187.14
624.857	256.847
627.75	200.97
630.643	202.39
633.536	235.803
636.428	196.642
639.321	205.193
642.214	207.508
645.106	215.42
647.999	114.415
650.892	233.93
653.784	161.881
656.677	240.472
659.57	301.1
662.463	195.733
665.355	108.611
668.248	142.249
671.141	139.257
674.033	106.218
676.926	153.603
679.819	96.375
682.712	80.1475
685.604	39.1807
688.497	64.8125
691.39	9.79004
694.282	39.4512
697.175	73.1387
700.068	73.1074
702.96	73.2812
705.853	3.45117
708.746	3.80469
711.639	34.4902
714.531	105.583
717.424	67.9082
720.317	55.3252
723.209	21.4756
726.102	33.3477
728.995	21.5078
731.887	61.4248
734.78	28.0283
737.673	10.1455
740.566	21.1904
743.458	72.7822
746.351	62.5508
749.244	119.586
752.136	33.3115
755.029	196.833
757.922	65.7207
760.814	94.3877
763.707	134.12
766.6	82.0986
769.492	181.645
772.385	81.96
775.278	155.147
778.17	144.347
781.063	101.36
783.956	164.855
786.849	231.013
789.741	265.92
792.634	229.228
795.527	196.704
798.419	190.503
801.312	325.541
804.205	363.718
807.097	503.146
809.99	738.305
812.883	897.747
815.776	587.678
818.668	368.753
821.561	183.967
824.454	180.445
827.346	171.731
830.239	213.223
833.132	282.394
836.024	313.601
838.917	283.258
841.81	162.003
844.703	66.2832
847.595	169.06
850.488	40.7363
853.381	163.181
856.273	82.749
859.166	66.6592
862.059	88.1553
864.952	32.6065
867.844	62.9629
870.737	1.14062
873.63	75.5693
876.522	46.7852
879.415	19.0771
882.308	49.0039
885.2	73.5596
888.093	19.4062
890.986	31.998
893.879	62.1045
896.771	41.8223
899.664	36.2588
902.557	58.8184
905.449	88.3564
908.342	120.335
911.235	74.2061
914.127	91.0215
917.02	129.694
919.913	69.7852
922.806	33.5283
925.698	92.4199
928.591	66.0606
931.484	90.6426
934.376	116.42
937.269	67.0039
940.162	17.4668
943.054	30.3906
945.947	33.0215
948.84	69.7578
951.732	52.5137
954.625	164.027
957.518	157.426
960.41	47.9863
963.303	123.451
966.196	74.8262
969.089	36.1602
971.981	128.953
974.874	80.4356
977.767	149.207
980.659	177.5
983.552	206.625
986.445	100.309
989.337	158.301
992.23	86.5898
995.123	127.557
998.016	221.809
1000.91	422.885
1003.8	276.457
1006.69	258.809
1009.59	207.434
1012.48	48.9121
1015.37	60.4473
1018.26	8.71094
1021.16	41.9023
1024.05	17.2598
1026.94	37.4297
1029.84	129.685
1032.73	89.5215
1035.62	51.2012
1038.51	132.758
1041.41	1.54492
1044.3	95.1602
1047.19	13.1445
1050.08	30.1113
1052.98	24.877
1055.87	35.707
1058.76	75.9668
1061.65	9.29297
1064.55	16.8457
1067.44	42.8027
1070.33	110.6
1073.23	149.318
1076.12	35.2402
1079.01	104.213
1081.9	183.918
1084.8	61.1191
1087.69	9.06641
1090.58	74.8691
1093.47	143.168
1096.37	158.51
1099.26	97.1777
1102.15	122.301
1105.05	17.4941
1107.94	70.3008
1110.83	81.7344
1113.72	126.225
1116.62	80.0098
1119.51	192.801
1122.4	160.34
1125.29	91.6973
1128.19	156.182
1131.08	79.4082
1133.97	79.2441
1136.87	62.209
1139.76	54.4531
1142.65	114.502
1145.54	130.793
1148.44	69.3672
1151.33	61.7402
1154.22	100.631
1157.11	228.516
1160.01	252.389
1162.9	245.551
1165.79	250.039
1168.68	261.613
1171.58	283.002
1174.47	250.486
1177.36	284.643
1180.26	299.504
1183.15	262.629
1186.04	221.809
1188.93	207.623
1191.83	317.211
1194.72	219.84
1197.61	302.486
1200.51	195.176
1203.4	175.824
1206.29	129.728
1209.18	4.07227
1212.08	32.1641
1214.97	152.834
1217.86	37.8809
1220.75	56.0918
1223.65	4.02344
1226.54	35.1875
1229.43	62.1797
1232.32	77.4824
1235.22	29.4102
1238.11	61.7285
1241	90.3809
1243.89	229.707
1246.79	437.191
1249.68	351.6
1252.57	411.621
1255.47	385.773
1258.36	523.863
1261.25	560.588
1264.14	370.297
1267.04	291.106
1269.93	173.211
