Measurement: Raman, 532 nm, unoriented, Raman Data Processed
Mineral: Remondite-(Ce)
Rruff sample: R120060
Ideal chemistry: Na_3_(Ce^3+^,Ca,Na)_3_(CO_3_)_5_
Locality: Mont Saint-Hilaire, Rouville RCM, Montérégie, Québec, Canada
Source: Donald Doell
Description: Tan to pale yellow acicular, associated with albite, calcite, and analcime
Raman shift (cm-1)	intensity
225.485	0
228.377	2.85651
231.27	6.54517
234.163	13.7587
237.056	17.7599
239.948	15.6279
242.841	17.8402
245.734	21.217
248.626	23.9307
251.519	25.3375
254.412	30.3795
257.305	27.0638
260.197	29.4285
263.09	26.1777
265.983	26.2156
268.875	25.062
271.768	20.7941
274.661	19.7524
277.553	18.9833
280.446	13.5522
283.339	8.83276
286.232	2.51947
289.124	0.819153
292.017	8.2323
294.91	2.57617
297.802	0.16095
300.695	1.42157
303.588	1.59845
306.481	0.87854
309.373	2.96539
312.266	0.204346
315.159	0.869019
318.051	3.92401
320.944	1.6264
323.837	2.02557
326.729	0.5896
329.622	0.224426
332.515	0.194275
335.408	1.69885
338.3	3.34601
341.193	3.64832
344.086	0.971436
346.978	0.086914
349.871	0.577454
352.764	3.29266
355.656	6.17627
358.549	5.78296
361.442	0.500671
364.334	2.67578
367.227	1.8418
370.12	1.08814
373.012	4.69122
375.905	2.87622
378.798	0.555542
381.691	0.987366
384.583	6.5379
387.476	2.33301
390.369	3.9646
393.261	4.17779
396.154	2.29504
399.047	5.22455
401.94	3.26227
404.832	2.54364
407.725	4.18243
410.618	8.37054
413.51	8.164
416.403	2.237
419.296	1.65686
422.188	1.9953
425.081	0.339478
427.974	1.92578
430.866	2.26752
433.759	0.445251
436.652	1.29266
439.545	0.079712
442.437	2.07184
445.33	3.72711
448.223	1.90076
451.115	3.05865
454.008	3.77008
456.901	2.76813
459.793	3.45361
462.686	4.5694
465.579	1.73926
468.472	1.35028
471.364	2.14563
474.257	4.30896
477.15	1.65332
480.042	0.321167
482.935	2.49609
485.828	3.15033
488.721	1.16199
491.613	3.44324
494.506	1.87335
497.399	3.83862
500.291	2.37561
503.184	1.1853
506.077	3.48315
508.969	1.88568
511.862	5.25165
514.755	1.50147
517.648	1.2207
520.54	0.09259
523.433	4.19721
526.326	3.70007
529.218	4.06622
532.111	4.6958
535.004	0.670532
537.896	2.61005
540.789	2.90234
543.682	4.19379
546.575	3.11951
549.467	4.84033
552.36	6.97717
555.253	3.7149
558.145	1.28406
561.038	5.32855
563.931	2.00775
566.823	4.04993
569.716	2.93603
572.609	0.722595
575.502	3.75818
578.394	5.6861
581.287	5.74872
584.18	4.41333
587.072	6.03088
589.965	5.83191
592.858	5.14178
595.75	4.75659
598.643	6.2254
601.536	3.16443
604.428	0.893127
607.321	4.50598
610.214	5.2497
613.107	6.08191
615.999	2.09705
618.892	4.3595
621.785	2.77478
624.677	1.25
627.57	0.141113
630.463	1.09064
633.356	0.905579
636.248	3.19141
639.141	2.41998
642.034	2.02069
644.926	1.53088
647.819	1.5437
650.712	1.45819
653.604	2.49591
656.497	3.32977
659.39	4.48675
662.283	2.86835
665.175	1.54993
668.068	0.341675
670.961	1.19348
673.853	1.54456
676.746	2.51111
679.639	4.53119
682.531	3.68762
685.424	7.38434
688.317	8.19458
691.21	9.1308
694.102	8.25897
696.995	11.4992
699.888	12.5883
702.78	9.39673
705.673	14.5328
708.566	14.322
711.458	11.7697
714.351	12.2857
717.244	8.13934
720.136	6.69452
723.029	7.27258
725.922	10.1992
728.815	7.85651
731.707	9.33655
734.6	8.54797
737.493	6.42114
740.385	4.88092
743.278	3.76764
746.171	0.689575
749.063	0.456665
751.956	3.73969
754.849	3.60059
757.742	4.04297
760.634	3.58783
763.527	0.539734
766.42	1.74194
769.312	2.36261
772.205	7.8949
775.098	3.08838
777.99	2.53119
780.883	2.98285
783.776	11.8378
786.669	6.74585
789.561	2.20282
792.454	3.08136
795.347	8.3017
798.239	3.53705
801.132	1.71454
804.025	2.9256
806.918	1.90228
809.81	2.7821
812.703	5.15399
815.596	7.02063
818.488	7.31158
821.381	5.94611
824.274	3.83514
827.166	1.67908
830.059	1.33777
832.952	4.82819
835.845	2.50885
838.737	0.594604
841.63	2.03803
844.523	0.759521
847.415	2.82556
850.308	0.064941
853.201	4.86395
856.093	4.05109
858.986	2.40979
861.879	4.74591
864.771	2.43262
867.664	2.59119
870.557	5.11487
873.45	4.34058
876.342	0.042969
879.235	0.044922
882.128	0.338501
885.02	0.627686
887.913	4.92273
890.806	3.12219
893.698	3.22192
896.591	2.19397
899.484	0.467407
902.377	2.63879
905.269	5.29944
908.162	8.7229
911.055	6.58472
913.947	8.3573
916.84	11.6979
919.733	9.09448
922.625	11.2881
925.518	12.5463
928.411	20.4186
931.304	17.3422
934.196	19.2722
937.089	16.5926
939.982	24.7643
942.875	25.5483
945.767	29.309
948.66	31.6562
951.553	30.1324
954.445	32.5544
957.338	32.0872
960.231	33.0472
963.123	35.516
966.016	36.7275
968.909	41.1821
971.802	33.4357
974.694	35.6804
977.587	37.4662
980.48	36.6587
983.372	37.1858
986.265	30.4695
989.158	35.3656
992.05	27.9367
994.943	29.106
997.836	23.2324
1000.73	20.7938
1003.62	19.6899
1006.51	13.9816
1009.41	11.5607
1012.3	9.61157
1015.19	9.04114
1018.09	6.3346
1020.98	9.25464
1023.87	7.05481
1026.76	0.299805
1029.66	0.001465
1032.55	2.95874
1035.44	4.67603
1038.33	3.36621
1041.23	2.16577
1044.12	3.02734
1047.01	5.23645
1049.9	5.48096
1052.8	14.9533
1055.69	22.8544
1058.58	35.3461
1061.47	53.5697
1064.37	75.2071
1067.26	89.9873
1070.15	109.26
1073.05	122.836
1075.94	135.071
1078.83	134.605
1081.72	131.078
1084.62	123.27
1087.51	105.203
1090.4	89.0001
1093.3	69.6741
1096.19	47.5183
1099.08	29.7267
1101.97	15.5372
1104.87	7.58582
1107.76	0.159302
1110.65	1.6781
1113.54	0.602905
1116.44	4.66504
1119.33	0.029907
1122.22	0.508301
1125.12	1.66919
1128.01	0.400513
1130.9	0.519775
1133.79	0.750366
1136.68	5.9054
1139.58	7.47388
1142.47	3.17419
1145.36	0.64917
1148.26	3.42688
1151.15	7.72485
1154.04	7.14319
1156.93	5.23535
1159.83	6.36621
1162.72	5.50818
1165.61	8.19836
1168.51	6.42712
1171.4	9.89941
1174.29	8.6189
1177.18	10.573
1180.08	7.64905
1182.97	6.49304
1185.86	11.5244
1188.75	8.95886
1191.65	9.67566
1194.54	8.93115
1197.43	9.22449
1200.33	8.91711
1203.22	9.95898
1206.11	12.0331
1209	8.5647
1211.9	14.309
1214.79	10.5802
1217.68	7.72229
1220.57	3.64392
1223.47	10.2861
1226.36	9.83398
1229.25	3.46338
1232.14	5.69934
1235.04	1.72754
1237.93	0.887817
1240.82	0.020386
1243.71	5.9541
1246.61	2.95752
1249.5	2.46191
1252.39	2.51685
1255.29	0.395386
1258.18	2.53662
1261.07	1.48389
1263.96	5.74878
1266.86	3.8468
1269.75	4.50134
1272.64	2.17139
1275.54	6.59717
1278.43	1.42004
1281.32	1.9032
1284.21	0.094116
1287.11	5.07752
1290	4.03967
1292.89	4.40283
1295.78	6.2605
1298.68	5.17908
1301.57	3.82324
