Measurement: Raman, 514 nm, unoriented, Raman Data Processed
Mineral: Renierite
Rruff sample: R050428
Ideal chemistry: (Cu^1+^,Cu^2+^Zn^2+^)_11_(Fe^2+^,Fe^3+^)_4_(Ge^4+^,As^5+^)_2_S^2-^_16_
Locality: Tsumeb mine, Tsumeb, Otavi District, Oshikoto, Namibia
Source: University of Arizona Mineral Museum
Description: Reddish bronze metallic massive, associated with siderite.
Measured chemistry: (Cu_10.73_Zn_0.28_)_Σ=11_Fe_4.00_(Ge_1.35_As_0.65_)_Σ=2_S_16.00_
Raman shift (cm-1)	intensity
182.114	0
186.251	164.609
190.387	5.033
194.52	105.855
198.652	278.404
202.782	302.152
206.909	246.736
211.035	159.694
215.159	1.517
219.281	133.827
223.4	96.464
227.518	159.305
231.634	238.139
235.748	193.771
239.86	394.031
243.97	732.793
248.079	737.956
252.185	1108.53
256.289	971.658
260.391	1319.61
264.492	1600.09
268.59	2046.17
272.687	2406.37
276.781	2650.69
280.874	2674.26
284.964	2882.67
289.053	2783.05
293.14	2657.42
297.225	2576.77
301.308	3243.05
305.389	5088.26
309.468	6428.44
313.545	4254.65
317.62	2791.18
321.693	2313.78
325.765	2326.24
329.834	2359.22
333.902	2977.49
337.967	3712.14
342.031	5513.84
346.093	7438.76
350.153	8503.43
354.21	7793.27
358.267	5685.27
362.321	4010.95
366.373	3195.2
370.423	2620.19
374.471	2379.88
378.518	2585.68
382.563	2706.94
386.605	2478.49
390.646	1801.66
394.685	1318.49
398.722	1047.28
402.757	835.11
406.79	954.588
410.821	643.154
414.851	388.827
418.878	271.223
422.904	397.889
426.927	284.497
430.949	149.792
434.969	291.72
438.987	179.879
443.003	98.64
447.018	85.939
451.03	135.106
455.041	92.141
459.049	5.027
463.056	48.761
467.061	34.35
471.064	41.775
475.065	111.021
479.064	74.917
483.062	83.897
487.057	73.542
491.051	63.988
495.043	16.196
499.032	63.721
503.02	8.843
507.007	71.787
510.991	26.117
514.973	9.77
518.954	127.146
522.933	104.85
526.91	169.053
530.885	10.393
534.858	97.401
538.829	117.298
542.799	73.893
546.766	114.315
550.732	16.551
554.696	107.648
558.658	5.364
562.618	12.331
566.576	32.888
570.533	62.253
574.488	178.037
578.44	52.441
582.391	101.278
586.341	55.936
590.288	103.417
594.233	64.668
598.177	182.757
602.119	207.628
606.059	189.896
609.997	262.535
613.933	186.637
617.868	356.917
621.801	383.251
625.731	280.375
629.66	512.292
633.588	580.451
637.513	328.159
641.437	507.538
645.358	590.292
649.278	604.761
653.196	634.599
657.113	758.917
661.027	677.968
664.94	692.83
668.851	518.933
672.76	459.945
676.667	573.068
680.572	682.772
684.476	666.701
688.378	741.581
692.278	798.142
696.176	872.001
700.072	770.096
703.967	730.324
707.86	815.509
711.751	904.25
715.64	580.017
719.527	447.196
723.413	605.351
727.297	462.983
731.179	690.982
735.059	245.749
738.937	635.516
742.814	362.578
746.689	209.703
750.562	384.44
754.433	328.345
758.303	347.307
762.17	339.139
766.036	343.629
769.901	245.343
773.763	246.298
777.624	363.806
781.482	176.034
785.339	56.887
789.195	122.148
793.048	71.742
796.9	220.326
800.75	31.938
804.598	14.065
808.445	158
812.289	117.49
816.132	57.101
819.973	65.545
823.813	28.487
827.65	140.734
831.486	84.767
835.32	100.534
839.152	122.959
842.983	160.84
846.812	59.537
850.639	84.089
854.464	59.125
858.288	56.258
862.11	66.295
865.93	172.526
869.748	86.611
873.564	108.372
877.379	136.915
881.192	110.314
885.004	65.4
888.813	25.437
892.621	47.984
896.427	122.346
900.232	158.636
904.034	117.609
907.835	150.37
911.634	148.922
915.432	73.304
919.227	29.321
923.021	93.777
926.813	184.396
930.604	87.035
934.393	60.447
938.18	115.069
941.965	8.263
945.749	57.986
949.53	19.796
953.311	191.106
957.089	197.879
960.866	48.95
964.641	24.06
968.414	90.649
972.185	125.101
975.955	215.854
979.723	38.431
983.49	51.583
987.254	71.505
991.017	78.423
994.779	79.526
998.538	147.989
1002.3	190.967
1006.05	129.302
1009.81	56.978
1013.56	122.309
1017.31	71.852
1021.06	253.488
1024.81	174.831
1028.55	145.752
1032.3	287.099
1036.04	243.66
1039.78	197.132
1043.52	340.081
1047.26	234.893
1050.99	322.032
1054.73	299.509
1058.46	383.271
1062.19	211.276
1065.92	173.662
1069.65	314.125
1073.37	228.429
1077.1	270.406
1080.82	259.868
1084.54	92.333
1088.26	169.188
1091.97	109.676
1095.69	72.014
1099.4	236.76
1103.12	140.702
1106.83	182.663
1110.54	27.99
1114.24	134.346
1117.95	118.341
1121.65	133.971
1125.35	172.007
1129.06	136.561
1132.75	117.004
1136.45	29.159
1140.15	61.223
1143.84	31.127
1147.53	88.639
1151.22	59.649
1154.91	13.246
1158.6	68.138
1162.28	62.209
1165.97	27.968
1169.65	27.973
1173.33	81.739
1177.01	60.011
1180.69	8.777
1184.36	65.115
1188.04	4.03
1191.71	32.773
1195.38	13.24
1199.05	62.201
1202.71	1.67
1206.38	105.078
1210.04	36.55
1213.71	102.698
1217.37	81.586
1221.03	80.334
1224.68	142.684
1228.34	86.787
1231.99	177.539
1235.65	148.648
1239.3	207.688
1242.95	165.58
1246.59	203.394
1250.24	108.001
1253.88	129.837
1257.53	62.519
1261.17	277.719
1264.81	247.429
1268.45	264.921
1272.08	189.958
1275.72	183.974
1279.35	200.978
1282.98	248.266
1286.61	324.793
1290.24	286.816
1293.87	241.72
1297.49	304.04
1301.11	383.276
1304.73	383.094
1308.36	387.918
1311.97	521.941
1315.59	790.233
1319.2	546.014
1322.82	611.398
1326.43	732.287
1330.04	968.949
1333.65	1097.69
1337.26	1114.64
1340.86	1242.88
1344.47	1449.52
1348.07	1475.44
1351.67	1528.47
1355.27	1607.44
1358.87	1598.86
1362.46	1467.59
1366.06	1499.01
1369.65	1336.35
1373.24	1214.59
1376.83	1180.55
1380.42	787.926
1384	875.69
1387.59	824.65
1391.17	748.805
1394.75	798.826
1398.33	660.819
1401.91	641.816
1405.49	443.876
1409.06	562.976
1412.64	431.224
1416.21	575.887
1419.78	430.479
1423.35	429.55
1426.91	495.642
1430.48	483.027
1434.05	581.303
1437.61	352.091
1441.17	436.616
1444.73	270.254
1448.29	288.01
1451.84	271.953
1455.4	190.703
1458.95	213.269
1462.5	266.481
1466.05	268.394
1469.6	69.093
1473.15	103.664
1476.69	92.294
1480.24	223.212
1483.78	237.701
1487.32	114.118
1490.86	83.973
1494.39	1.49
1497.93	155.161
1501.46	88.216
1505	85.658
