Measurement: Raman, 785 nm, unoriented, Raman Data Processed
Mineral: Reyerite
Rruff sample: R060749
Ideal chemistry: Na_2_Ca_14_Al_2_Si_22_O_58_(OH)_8_6H_2_O
Locality: Drynoch, Island of Skye, Scotland
Source: Michael Scott
Description: Radiating aggregates of colorless thin hexagonal plates.
Raman shift (cm-1)	intensity
182.757	0
185.649	166.733
188.542	288.448
191.435	337.006
194.327	503.458
197.22	617.927
200.113	718.442
203.005	757.548
205.898	661.13
208.791	501.568
211.684	427.225
214.576	344.839
217.469	182.445
220.362	224.121
223.254	231.082
226.147	138.646
229.04	149.583
231.932	136.28
234.825	160.142
237.718	234.206
240.611	276.475
243.503	347.341
246.396	394.564
249.289	478.624
252.181	564.608
255.074	703.956
257.967	851.446
260.859	1054.34
263.752	1151.13
266.645	1285.18
269.538	1422.43
272.43	1718.29
275.323	1974.71
278.216	2236.92
281.108	2375.61
284.001	2260.55
286.894	1878.98
289.786	1224.43
292.679	1129.67
295.572	995.223
298.465	991.258
301.357	959.566
304.25	959.805
307.143	881.118
310.035	714.977
312.928	546.94
315.821	437.944
318.714	305.744
321.606	300.979
324.499	345.168
327.392	441.972
330.284	463.373
333.177	550.09
336.07	539.476
338.962	645.851
341.855	784.033
344.748	1001.88
347.641	1251.85
350.533	1554.58
353.426	1639.81
356.319	1264.02
359.211	939.362
362.104	636.145
364.997	448.647
367.889	460.881
370.782	462.315
373.675	451.031
376.568	439.994
379.46	412.685
382.353	372.27
385.246	280.44
388.138	403.954
391.031	436.809
393.924	541.051
396.816	587.962
399.709	579.518
402.602	492.207
405.495	441.317
408.387	281.738
411.28	217.566
414.173	290.091
417.065	277.934
419.958	315.006
422.851	304.067
425.743	371.305
428.636	499.43
431.529	400.433
434.422	373.918
437.314	234.383
440.207	236.913
443.1	222.368
445.992	285.613
448.885	274.921
451.778	282.533
454.67	204.903
457.563	269.651
460.456	395.87
463.349	375.997
466.241	390.49
469.134	403.358
472.027	428.724
474.919	369.191
477.812	276.706
480.705	241.579
483.597	242.019
486.49	299.193
489.383	463.072
492.276	465.339
495.168	484.193
498.061	498.492
500.954	519.583
503.846	461.232
506.739	268.572
509.632	283.064
512.524	205.299
515.417	117.927
518.31	102.275
521.203	19.992
524.095	47.983
526.988	1.303
529.881	12.076
532.773	50.818
535.666	49.299
538.559	83.42
541.451	129.188
544.344	103.914
547.237	234.643
550.13	278.912
553.022	410.723
555.915	767.045
558.808	1106.74
561.7	1684.45
564.593	2480.26
567.486	3059.61
570.378	3362.64
573.271	3103.23
576.164	2369.15
579.057	1726.36
581.949	1452.38
584.842	1175.45
587.735	942.258
590.627	872.25
593.52	936.658
596.413	1178.44
599.305	1214.76
602.198	1425.25
605.091	1603.61
607.984	1794.07
610.876	2045.23
613.769	2252.56
616.662	2010.49
619.554	1639.64
622.447	1271.78
625.34	1053.9
628.232	984.498
631.125	792.227
634.018	827.714
636.911	758.731
639.803	644.619
642.696	283.121
645.589	299.03
648.481	200.255
651.374	220.438
654.267	241.236
657.159	409.481
660.052	421.597
662.945	303.344
665.838	225.081
668.73	265.011
671.623	232.8
674.516	341.216
677.408	380.138
680.301	233.375
683.194	218.647
686.086	79.194
688.979	99.601
691.872	147.995
694.765	212.273
697.657	211.353
700.55	311.038
703.443	294.374
706.335	94.018
709.228	140.606
712.121	99.855
715.013	5.92
717.906	127.59
720.799	127.071
723.692	101.087
726.584	42.131
729.477	26.721
732.37	36.322
735.262	68.941
738.155	102.625
741.048	155.277
743.94	201.674
746.833	266.55
749.726	345.769
752.619	444.721
755.511	394.445
758.404	296.012
761.297	275.153
764.189	288.476
767.082	237.43
769.975	247.383
772.867	262.465
775.76	214.852
778.653	187.855
781.545	210.921
784.438	101.3
787.331	96.327
790.224	0.422
793.116	64.159
796.009	24.951
798.902	48.913
801.794	35.787
804.687	57.887
807.58	65.274
810.472	93.947
813.365	89.829
816.258	13.407
819.151	56.994
822.043	38.25
824.936	71.528
827.829	94.069
830.721	98.472
833.614	110.49
836.507	135.659
839.4	154.146
842.292	80.835
845.185	57.908
848.078	79.967
850.97	71.746
853.863	111.835
856.756	49.904
859.648	48.192
862.541	3.025
865.434	25.653
868.327	16.973
871.219	14.76
874.112	76.405
877.005	31.902
879.897	48.767
882.79	71.471
885.683	73.108
888.576	55.571
891.468	84.08
894.361	24.249
897.254	85.451
900.146	102.583
903.039	171.821
905.932	233.104
908.824	286.104
911.717	266.983
914.61	89.499
917.503	146.417
920.395	16.775
923.288	20.201
926.181	65.56
929.073	34.372
931.966	87.196
934.859	74.677
937.751	38.418
940.644	11.138
943.537	44.495
946.43	80.268
949.322	96.992
952.215	141.872
955.108	158.323
958	115.923
960.893	226.07
963.786	175.036
966.678	246.044
969.571	226.561
972.464	126.362
975.357	166.348
978.249	237.549
981.142	289.133
984.035	303.176
986.927	271.334
989.82	150.318
992.713	88.928
995.605	75.116
998.498	196.966
1001.39	276.455
1004.28	277.576
1007.18	316.069
1010.07	355.564
1012.96	444.623
1015.85	532.364
1018.75	633.345
1021.64	683.713
1024.53	655.642
1027.42	511.555
1030.32	592.589
1033.21	634.031
1036.1	632.001
1039	611.071
1041.89	655.849
1044.78	621.292
1047.67	652.353
1050.57	740.794
1053.46	859.71
1056.35	687.665
1059.24	434.453
1062.14	318.591
1065.03	194.44
1067.92	194.51
1070.82	181.614
1073.71	231.874
1076.6	402.997
1079.49	397.794
1082.39	453.286
1085.28	336.34
1088.17	314.836
1091.07	367.783
1093.96	505.113
1096.85	390.384
1099.74	177.58
1102.63	213.925
1105.53	155.25
1108.42	145.482
1111.31	56.762
1114.21	169.616
1117.1	154.672
1119.99	46.84
1122.88	210.811
1125.78	219.137
1128.67	273.413
1131.56	239.981
1134.45	295.712
1137.35	221.507
1140.24	327.48
1143.13	533.494
1146.03	500.82
1148.92	570.711
1151.81	714.716
1154.7	775.702
1157.6	778.795
1160.49	896.86
1163.38	926.985
1166.28	1064.39
1169.17	1304.01
1172.06	1473.65
1174.95	1457.86
1177.85	1205.81
1180.74	828.629
1183.63	572.535
1186.52	350.382
1189.42	334.483
1192.31	321.764
1195.2	117.186
1198.09	159.666
1200.99	117.269
1203.88	20.929
1206.77	6.305
1209.66	23.55
1212.56	21.065
1215.45	11.786
1218.34	82.936
1221.24	24.656
1224.13	41.528
1227.02	38.682
1229.91	51.355
1232.81	45.896
1235.7	54.208
1238.59	36.019
1241.48	51.363
1244.38	200.347
1247.27	89.117
1250.16	60.131
1253.06	19.005
1255.95	24.056
1258.84	87.188
1261.73	116.258
1264.63	63.045
1267.52	23.629
1270.41	37.815
