Measurement: Raman, 532 nm, unoriented, Raman Data Processed
Mineral: Reyerite
Rruff sample: R060749
Ideal chemistry: Na_2_Ca_14_Al_2_Si_22_O_58_(OH)_8_6H_2_O
Locality: Drynoch, Island of Skye, Scotland
Source: Michael Scott
Description: Radiating aggregates of colorless thin hexagonal plates.
Raman shift (cm-1)	intensity
144.664	0
147.557	187.664
150.45	17.7305
153.342	74.4727
156.235	138.129
159.128	746.856
162.02	1321.31
164.913	1370.4
167.806	1237.61
170.699	967.309
173.591	821.57
176.484	711.926
179.377	982.426
182.269	1006.43
185.162	1144.93
188.055	927.019
190.947	1298.81
193.84	1242.56
196.733	1003.53
199.626	1207.1
202.518	1073.25
205.411	1356.99
208.304	1183.19
211.196	714.723
214.089	543.617
216.982	578.238
219.875	548.875
222.767	483.606
225.66	236.367
228.553	102.82
231.445	284.812
234.338	351.629
237.231	67.1836
240.123	145.238
243.016	350.527
245.909	533.356
248.802	730.352
251.694	635.113
254.587	293.219
257.48	414.25
260.372	714.25
263.265	1096.24
266.158	1163.81
269.05	1436.26
271.943	1324.29
274.836	1692.11
277.728	2127.28
280.621	2023.94
283.514	2357.11
286.407	1845.72
289.299	1345.96
292.192	846.894
295.085	666.879
297.977	529.426
300.87	666.328
303.763	735.191
306.656	788.059
309.548	589.691
312.441	291.766
315.334	203.453
318.226	13.8594
321.119	93.1328
324.012	186.09
326.904	225.59
329.797	158.164
332.69	136.285
335.582	180.469
338.475	401.09
341.368	513.332
344.261	459.672
347.153	653.047
350.046	1090.24
352.939	1215.93
355.831	1022.39
358.724	351.926
361.617	310.973
364.51	119.039
367.402	88.8438
370.295	70.875
373.188	200.156
376.08	251.5
378.973	57.4609
381.866	75.582
384.758	173.617
387.651	399.574
390.544	524.902
393.437	490.617
396.329	264.867
399.222	152.004
402.115	149.297
405.007	198.379
407.9	68.8203
410.793	122.156
413.685	310.785
416.578	694.773
419.471	638.848
422.363	702.84
425.256	770.047
428.149	794.367
431.041	858.856
433.934	918.871
436.827	988.305
439.72	732.973
442.612	976.098
445.505	680.438
448.398	304.375
451.29	203.121
454.183	310.266
457.076	192.113
459.969	37.1055
462.861	34.7578
465.754	121.793
468.647	483.539
471.539	293.672
474.432	240.348
477.325	124.535
480.217	167.172
483.11	319.25
486.003	458.027
488.896	769.652
491.788	700.684
494.681	785.371
497.574	814.981
500.466	583.062
503.359	505.719
506.252	547.672
509.144	456.984
512.037	171.809
514.93	80.1914
517.822	228.035
520.715	311.66
523.608	280.238
526.501	224.769
529.393	229.144
532.286	32.8125
535.179	93.6758
538.071	138.961
540.964	64.4062
543.857	168.973
546.75	380.5
549.642	639.176
552.535	814.664
555.428	1202
558.32	1823.7
561.213	2598.59
564.106	3886.86
566.998	4777.41
569.891	5946.48
572.784	5618.48
575.677	4424.9
578.569	2972.55
581.462	2140.38
584.355	1801.92
587.247	1523.98
590.14	1226.26
593.033	1230.53
595.925	1215.72
598.818	1342.86
601.711	1493.05
604.604	2126.67
607.496	2240.07
610.389	2553.63
613.282	2811.21
616.174	2580.07
619.067	2241.75
621.96	1813.73
624.852	1760.77
627.745	1241.06
630.638	958.414
633.53	744.914
636.423	694.094
639.316	316.898
642.209	76.0547
645.101	11.5547
647.994	421.648
650.887	725.594
653.779	942.75
656.672	1322.92
659.565	876.562
662.457	368.961
665.35	513.727
668.243	662.422
671.136	994.203
674.028	578.008
676.921	125.078
679.814	58.0234
682.706	235.766
685.599	178.031
688.492	131.008
691.385	330.883
694.277	289.094
697.17	189.625
700.063	237.555
702.955	221.875
705.848	72.0156
708.741	190.07
711.633	166.367
714.526	69.8125
717.419	35.0781
720.311	32.3594
723.204	321.406
726.097	121.789
728.99	200.43
731.882	277.938
734.775	97.7812
737.668	190.445
740.56	273.312
743.453	506.352
746.346	1025.13
749.238	1172.41
752.131	1093.32
755.024	985.734
757.917	1095.9
760.809	1017.6
763.702	1128.91
766.595	1261.64
769.487	1091.24
772.38	905.047
775.273	569.555
778.165	478.703
781.058	560.289
783.951	100.664
786.843	17.9375
789.736	118.953
792.629	240.25
795.522	235.992
798.414	82.375
801.307	230.93
804.2	48.8438
807.092	65.9844
809.985	18.625
812.878	124.383
815.77	304.438
818.663	264.086
821.556	36.8828
824.449	212.156
827.341	399.844
830.234	563.273
833.127	252.086
836.019	132.445
838.912	247.445
841.805	292.344
844.697	255.914
847.59	285.688
850.483	191.977
853.376	41.5078
856.268	264.805
859.161	184.43
862.054	848.953
864.946	522.555
867.839	418.648
870.732	304.008
873.625	571.406
876.517	621.266
879.41	693.438
882.303	649.5
885.195	335.984
888.088	442.016
890.981	609.367
893.873	731.961
896.766	794.617
899.659	202.484
902.552	454.172
905.444	181.297
908.337	24.1484
911.23	33.2266
914.122	54.7969
917.015	370.586
919.908	272.07
922.8	224.727
925.693	332.32
928.586	279.43
931.479	339.75
934.371	231.781
937.264	137.453
940.157	462.414
943.049	627.812
945.942	856.812
948.835	944.102
951.727	1081.5
954.62	1166.42
957.513	1329.51
960.405	983.359
963.298	1106.56
966.191	1394.26
969.084	713.656
971.976	615.227
974.869	604.102
977.762	901.188
980.654	968.922
983.547	1440.41
986.44	1540.56
989.332	2209.48
992.225	2751.14
995.118	3589.17
998.011	4721.55
1000.9	5185.25
1003.8	5212.72
1006.69	4635.64
1009.58	4038.03
1012.47	3739.13
1015.37	3340.65
1018.26	2954
1021.15	2871.29
1024.05	2941.59
1026.94	3104.97
1029.83	2604.08
1032.72	2326.63
1035.62	2208.17
1038.51	2123.94
1041.4	1727.27
1044.29	1625.33
1047.19	1573.66
1050.08	1586.44
1052.97	2263.84
1055.87	2110.11
1058.76	1698.95
1061.65	1028.77
1064.54	510.391
1067.43	319.781
1070.33	120.492
1073.22	185.805
1076.11	8.29688
1079.01	283.164
1081.9	404.641
1084.79	151.891
1087.68	177.117
1090.58	12.9375
1093.47	278.992
1096.36	364.867
1099.26	164.914
1102.15	4.625
1105.04	73.5234
1107.93	211.164
1110.83	167.156
1113.72	208.758
1116.61	197.195
1119.5	41.1016
1122.4	146.641
1125.29	907.82
1128.18	1713.08
1131.08	2585.31
1133.97	3026.45
1136.86	4129.64
1139.75	5979.5
1142.65	8565.84
1145.54	11179.4
1148.43	13766.2
1151.32	16459.1
1154.22	16539.7
1157.11	14025.2
1160	10282.1
1162.89	6777.08
1165.79	4336.04
1168.68	3453.52
1171.57	3000.23
1174.46	2264.51
1177.36	641.188
1180.25	206.117
