Measurement: Raman, 780 nm, unoriented, Raman Data Processed
Mineral: Rhodonite
Rruff sample: R100038
Ideal chemistry: CaMn^2+^_3_Mn^2+^Si_5_O_15_
Locality: Langban, Filipstad, Varmland, Sweden
Source: William W Pinch
Description: Pale red, tabular to blocky crystals associated with black langbanite R100037
Raman shift (cm-1)	intensity
120.942	0
124.317	0.321655
127.692	2.29028
131.067	11.7454
134.442	17.7097
137.816	10.2457
141.191	4.33081
144.566	0.950684
147.941	0.561279
151.316	8.401
154.69	4.01599
158.065	2.86975
161.44	9.58508
164.815	10.0452
168.19	4.97913
171.565	4.31848
174.939	0.024292
178.314	0.056152
181.689	2.18921
185.064	5.85754
188.439	3.89307
191.814	3.39307
195.188	7.1936
198.563	6.26526
201.938	10.9388
205.313	8.07873
208.688	12.2119
212.062	9.20703
215.437	5.52832
218.812	7.24451
222.187	13.4319
225.562	6.84375
228.936	5.14026
232.311	5.37964
235.686	11.0524
239.061	13.7689
242.436	11.6751
245.811	13.1333
249.185	10.6017
252.56	8.73023
255.935	9.94446
259.31	6.80127
262.685	14.14
266.059	9.49951
269.434	7.82837
272.809	4.16077
276.184	8.32019
279.559	4.91235
282.933	5.0686
286.308	1.5033
289.683	8.15369
293.058	1.95276
296.433	2.94031
299.808	0.639038
303.182	4.76892
306.557	6.60596
309.932	9.21326
313.307	3.36816
316.682	8.55481
320.057	6.77918
323.431	25.457
326.806	14.422
330.181	16.019
333.556	19.0629
336.931	25.24
340.305	22.9976
343.68	22.4077
347.055	19.9338
350.43	21.0395
353.805	30.5974
357.18	20.2873
360.554	20.6499
363.929	25.2342
367.304	15.1626
370.679	17.8298
374.054	6.3374
377.428	3.26257
380.803	0.337402
384.178	4.01807
387.553	1.13257
390.928	4.45715
394.303	1.0415
397.677	1.47876
401.052	3.15784
404.427	2.63794
407.802	11.3834
411.177	0.395996
414.551	4.05176
417.926	7.59692
421.301	15.6808
424.676	6.98303
428.051	5.65076
431.425	5.07581
434.8	10.3856
438.175	11.2479
441.55	1.97241
444.925	7.95544
448.3	9.9779
451.674	6.95227
455.049	6.7865
458.424	7.13293
461.799	6.48535
465.174	0.845459
468.548	5.81018
471.923	1.13672
475.298	1.73914
478.673	8.17456
482.048	3.99963
485.423	4.6283
488.797	7.65881
492.172	14.3191
495.547	11.728
498.922	18.6947
502.297	16.2816
505.671	28.0959
509.046	20.3449
512.421	18.2252
515.796	20.1548
519.171	5.64758
522.545	5.77649
525.92	2.55115
529.295	1.48218
532.67	2.46509
536.045	2.5321
539.42	5.05359
542.794	9.10144
546.169	9.89722
549.544	8.86035
552.919	8.10303
556.294	10.7797
559.668	9.20459
563.043	8.44373
566.418	0.778442
569.793	8.65552
573.168	0.875244
576.543	4.09534
579.917	1.44189
583.292	2.27258
586.667	5.54724
590.042	3.46716
593.417	3.47852
596.792	4.33801
600.166	1.68408
603.541	4.57947
606.916	3.68445
610.291	4.54858
613.666	6.85278
617.04	5.01526
620.415	2.25537
623.79	2.50549
627.165	3.70203
630.54	6.48523
633.915	12.0914
637.289	11.8751
640.664	16.8033
644.039	22.7361
647.414	19.4944
650.789	34.2636
654.163	48.7777
657.538	71.9232
660.913	91.4344
664.288	104.533
667.663	113.594
671.038	93.1267
674.412	50.5558
677.787	36.8552
681.162	28.4804
684.537	22.4114
687.912	9.56067
691.286	4.99512
694.661	4.62354
698.036	9.11389
701.411	7.03162
704.786	4.66272
708.16	6.80835
711.535	8.55383
714.91	10.4822
718.285	8.55054
721.66	15.146
725.035	8.32776
728.409	11.439
731.784	14.7925
735.159	10.2598
738.534	8.50403
741.909	7.56775
745.284	9.93347
748.658	8.25806
752.033	6.4397
755.408	5.89661
758.783	6.04321
762.158	2.35132
765.532	1.12647
768.907	2.63184
772.282	3.38916
775.657	3.76392
779.032	0.919434
782.407	0.716553
785.781	2.80408
789.156	9.01233
792.531	10.1503
795.906	8.53174
799.281	4.56323
802.655	3.85596
806.03	9.61853
809.405	11.9789
812.78	11.8652
816.155	9.45581
819.529	17.3679
822.904	16.0789
826.279	15.3906
829.654	13.6377
833.029	21.5699
836.404	20.542
839.778	22.8438
843.153	21.7727
846.528	21.6513
849.903	20.4416
853.278	27.5678
856.653	26.9159
860.027	21.4448
863.402	15.6766
866.777	13.0231
870.152	17.2827
873.527	7.12048
876.901	13.2819
880.276	14.002
883.651	11.4242
887.026	5.17127
890.401	4.25915
893.775	6.02856
897.15	0.660156
900.525	9.70911
903.9	11.5355
907.275	4.38489
910.649	0.358887
914.024	3.00952
917.399	14.8392
920.774	5.04175
924.149	1.78906
927.524	4.30408
930.898	5.81043
934.273	8.17651
937.648	0.651001
941.023	3.3169
944.398	3.06604
947.773	0.927612
951.147	2.91553
954.522	0.401001
957.897	3.01868
961.272	10.9827
964.647	20.7773
968.021	30.3672
971.396	38.8987
974.771	47.5289
978.146	37.9919
981.521	35.5848
984.895	36.1268
988.27	50.8129
991.645	60.312
995.02	56.5242
998.395	60.3207
1001.77	63.5869
1005.14	49.6415
1008.52	29.0825
1011.89	20.5099
1015.27	12.709
1018.64	7.93921
1022.02	13.0339
1025.39	10.1709
1028.77	10.2161
1032.14	2.45142
1035.52	11.7103
1038.89	11.3582
1042.27	16.1078
1045.64	17.8866
1049.02	17.9362
1052.39	12.6299
1055.77	3.67835
1059.14	6.35669
1062.52	3.24512
1065.89	4.58643
1069.27	0.82605
1072.64	7.16663
1076.02	2.85693
1079.39	0.346069
1082.77	1.75928
1086.14	4.07739
1089.52	5.50513
1092.89	4.73889
1096.27	1.20117
1099.64	0.701172
1103.01	0.078857
1106.39	3.04956
1109.76	6.55029
1113.14	0.907959
1116.51	2.65088
1119.89	0.46936
1123.26	9.58594
1126.64	9.74048
1130.01	12.5378
1133.39	10.0183
1136.76	17.4816
1140.14	30.1948
1143.51	33.3991
1146.89	35.4308
1150.26	40.5731
1153.64	44.1313
1157.01	44.8506
1160.39	49.5399
1163.76	44.8901
1167.14	40.7214
1170.51	39.3169
1173.88	41.8805
1177.26	36.1326
1180.63	32.6808
1184.01	19.8118
1187.38	28.1445
1190.76	24.384
1194.13	14.8467
1197.51	16.5933
1200.88	7.96826
1204.26	12.0376
1207.63	11.3508
1211.01	8.52649
1214.38	10.9148
1217.76	1.80676
1221.13	0.025513
1224.51	2.23999
1227.88	6.76221
1231.26	11.3269
1234.63	0.375244
1238.01	10.0073
1241.38	0.268799
1244.76	1.09644
1248.13	5.45019
1251.51	1.77368
1254.88	4.10278
1258.26	7.27124
1261.63	5.9375
1265.01	15.4983
1268.38	0.089844
1271.76	3.65991
1275.13	7.02612
1278.51	3.32983
1281.88	7.31836
1285.25	0.83667
