Measurement: Raman, 532 nm, unoriented, Raman Data Processed
Mineral: Rhodostannite
Rruff sample: R120139
Ideal chemistry: Cu^1+^(Fe^2+^_0.5_Sn^4+^_1.5_)S^2-^_4_
Locality: Pirquitas, Jujuy Province, Argentina
Source: Michael Scott
Description: Steel gray metallic massive, associated with pirquitasite, R061016
Measured chemistry: (Cu_1.45_Ag_0.60_)Fe_1.00_Sn_3.02_S_8_
Raman shift (cm-1)	intensity
196.874	0
199.766	0.014854
202.659	0.960419
205.552	1.22781
208.445	2.75539
211.337	2.23495
214.23	2.36965
217.123	0.676735
220.015	1.57594
222.908	0.032738
225.801	0.64225
228.693	0.097176
231.586	1.03883
234.479	0.772713
237.371	1.62996
240.264	3.68072
243.157	3.89951
246.05	5.79912
248.942	6.10432
251.835	10.6174
254.728	9.6043
257.62	9.15701
260.513	6.84795
263.406	6.7433
266.298	8.7394
269.191	8.55073
272.084	11.4251
274.977	11.2194
277.869	12.4895
280.762	12.9487
283.655	13.5079
286.547	12.3592
289.44	12.6557
292.333	10.4741
295.226	10.8687
298.118	11.0744
301.011	13.0354
303.904	14.9554
306.796	15.7911
309.689	17.8965
312.582	22.214
315.474	25.2957
318.367	32.3084
321.26	27.4539
324.152	21.8795
327.045	18.5014
329.938	13.0563
332.831	11.6577
335.723	11.0459
338.616	11.9963
341.509	12.5956
344.401	16.0318
347.294	16.8373
350.187	19.4193
353.079	19.5738
355.972	18.8524
358.865	15.2235
361.758	10.9656
364.65	8.18678
367.543	6.90979
370.436	3.60038
373.328	4.06298
376.221	3.05479
379.114	0.933739
382.007	1.08189
384.899	0.09169
387.792	0.728149
390.685	0.013168
393.577	0.624397
396.47	0.218552
399.363	0.510414
402.255	1.03251
405.148	0.06279
408.041	0.92897
410.933	0.095734
413.826	0.546555
416.719	0.714088
419.612	0.798676
422.504	0.617249
425.397	0.470993
428.29	2.01007
431.182	1.21709
434.075	1.74217
436.968	2.07178
439.861	1.39271
442.753	1.65284
445.646	1.5311
448.539	3.13012
451.431	1.09401
454.324	1.29924
457.217	0.795647
460.109	0.054482
463.002	1.83499
465.895	1.59947
468.788	1.89909
471.68	1.2896
474.573	1.31851
477.466	1.21518
480.358	1.49951
483.251	0.93943
486.144	0.30365
489.036	0.685196
491.929	0.766525
494.822	1.58406
497.714	0.776993
500.607	1.16072
503.5	1.14564
506.393	0.203896
509.285	1.02916
512.178	0.179848
515.071	0.84034
517.963	0.482628
520.856	0.434669
523.749	0.081482
526.641	0.939514
529.534	1.34807
532.427	0.417358
535.32	0.921852
538.212	1.28835
541.105	1.27023
543.998	1.63369
546.89	0.953651
549.783	1.85773
552.676	1.60039
555.568	1.79064
558.461	1.74936
561.354	2.53292
564.247	1.11367
567.139	2.27274
570.032	2.56928
572.925	1.52946
575.817	2.06586
578.71	2.56898
581.603	1.48698
584.495	1.04712
587.388	1.37583
590.281	1.92949
593.174	0.876427
596.066	2.13989
598.959	2.14079
601.852	1.88773
604.744	1.91367
607.637	2.3431
610.53	1.00087
613.423	1.37199
616.315	2.62131
619.208	2.008
622.101	2.07169
624.993	2.08557
627.886	0.223083
630.779	1.16115
633.671	0.077545
636.564	0.888824
639.457	0.830582
642.35	0.19548
645.242	0.319038
648.135	0.767555
651.028	0.765549
653.92	0.939682
656.813	1.08067
659.706	0.80603
662.598	1.13737
665.491	0.061935
668.384	0.555382
671.277	0.695229
674.169	1.44598
677.062	0.033714
679.955	0.797722
682.847	0.692963
685.74	0.244308
688.633	0.636185
691.525	0.549049
694.418	0.597862
697.311	1.17795
700.203	1.22951
703.096	0.645721
705.989	0.098465
708.882	0.640663
711.774	0.758247
714.667	1.24085
717.56	0.743439
720.452	1.16889
723.345	0.165588
726.238	0.090294
729.13	1.2113
732.023	0.56591
734.916	1.284
737.809	0.286263
740.701	0.946114
743.594	1.47707
746.487	2.85878
749.379	0.743538
752.272	0.502693
755.165	1.05581
758.058	0.734436
760.95	1.16645
763.843	1.49117
766.736	0.546593
769.628	0.846146
772.521	1.34285
775.414	0.687347
778.306	1.03447
781.199	1.43545
784.092	0.058647
786.985	0.827202
789.877	0.27784
792.77	0.502953
795.663	1.19733
798.555	1.14038
801.448	1.88494
804.341	1.26603
807.233	1.56074
810.126	1.03551
813.019	0.971794
815.912	1.28495
818.804	1.31084
821.697	0.869164
824.59	0.142548
827.482	1.12198
830.375	1.09938
833.268	0.521599
836.16	1.75948
839.053	0.947128
841.946	0.397057
844.838	0.67067
847.731	1.8577
850.624	0.561211
853.517	1.44299
856.409	1.16203
859.302	1.22297
862.195	1.04118
865.087	0.135391
867.98	1.01593
870.873	0.749207
873.765	0.995209
876.658	0.535156
879.551	0.640877
882.444	0.139915
885.336	0.235016
888.229	0.947624
891.122	0.52787
894.014	1.02937
896.907	0.727875
899.8	1.28973
902.692	0.247116
905.585	1.74258
908.478	1.07233
911.371	0.719841
914.263	0.769859
917.156	1.65533
920.049	0.437096
922.941	1.24551
925.834	0.790871
928.727	0.70195
931.62	0.639481
934.512	1.45165
937.405	1.53287
940.298	0.14698
943.19	0.227081
946.083	0.871788
948.976	0.303009
951.868	0.728516
954.761	0.010056
957.654	1.16176
960.547	1.35722
963.439	0.520905
966.332	1.41836
969.225	1.94754
972.117	0.808716
975.01	1.37117
977.903	1.48425
980.795	1.32735
983.688	1.18179
986.581	1.781
989.473	1.66314
992.366	1.68658
995.259	1.30662
998.152	2.49338
1001.04	3.56038
1003.94	1.72549
1006.83	1.04687
1009.72	0.695358
1012.62	1.05547
1015.51	1.15028
1018.4	0.694473
1021.29	0.166603
1024.19	1.1981
1027.08	1.30074
1029.97	1.6653
1032.86	2.86316
1035.76	1.55389
1038.65	0.684433
1041.54	0.977798
1044.43	0.315132
1047.33	0.156029
1050.22	1.08649
1053.11	0.138832
1056.01	0.873779
1058.9	0.35347
1061.79	0.648849
1064.68	0.919746
1067.58	0.368385
1070.47	1.55012
1073.36	0.550468
1076.26	0.389458
1079.15	0.059334
1082.04	0.981293
1084.93	1.53754
1087.83	1.12497
1090.72	0.885727
1093.61	1.15086
1096.5	1.30106
1099.4	1.37214
1102.29	1.37926
1105.18	1.11672
1108.07	0.445595
1110.97	1.37609
1113.86	0.705414
1116.75	0.641998
1119.64	1.94132
1122.54	1.34001
1125.43	0.617134
1128.32	1.65012
1131.22	0.515594
1134.11	0.458244
1137	0.892273
1139.89	0.657585
1142.79	1.29315
1145.68	2.8006
1148.57	0.665138
1151.46	1.06989
1154.36	0.71183
1157.25	0.421333
1160.14	0.212952
1163.04	0.796829
1165.93	1.05576
1168.82	0.59523
1171.71	0.908508
1174.61	0.931335
1177.5	3.13539
1180.39	1.30795
1183.28	0.878006
1186.18	0.654175
1189.07	0.187439
1191.96	1.87582
1194.86	0.852409
1197.75	1.07917
1200.64	1.50134
1203.53	1.61319
1206.43	1.55787
1209.32	1.13058
1212.21	1.12929
1215.1	1.57765
1218	0.634064
1220.89	0.353409
1223.78	0.491821
1226.67	1.07697
1229.57	1.14183
1232.46	1.48841
1235.35	0.767113
1238.25	0.457802
1241.14	0.967941
1244.03	1.41631
1246.92	1.45615
1249.82	0.616783
1252.71	1.31932
1255.6	0.092392
1258.49	1.28098
1261.39	0.981049
1264.28	0.134689
1267.17	0.567963
1270.07	1.0516
1272.96	1.439
1275.85	1.29651
1278.74	0.895172
1281.64	1.34323
1284.53	1.05711
1287.42	0.408241
1290.31	0.920685
1293.21	0.591576
1296.1	0.28154
1298.99	0.748917
1301.88	0
