Measurement: Raman, 780 nm, unoriented, Raman Data Processed
Mineral: Rhonite
Rruff sample: R060316
Ideal chemistry: Ca_4_(Mg_8_Fe^3+^_2_Ti^4+^_2_)O_4_[Si_6_Al_6_O_36_]
Locality: Nickenicher Sattel, Laacher See District, Eifel, Germany
Source: Michael Scott
Description: Brown bladed crystals
Measured chemistry: (Ca_1.53_Na_0.47_)_Σ=2_(Mg_2.90_Fe^3+^_2.02_Fe^2+^_0.43_Ti_0.57_Mn_0.07_Cr_0.01_)_Σ=6_(Si_3.30_Al_2.70_)_Σ=6_O_20_ ; Fe2 and Fe3 estimated by charge balance
Raman shift (cm-1)	intensity
141.191	0
144.084	2.45422
146.977	2.58939
149.869	1.93979
152.762	5.39984
155.655	0.316376
158.547	5.06442
161.44	3.34872
164.333	2.11099
167.226	4.26907
170.118	2.5556
173.011	2.22458
175.904	0.887909
178.796	2.13721
181.689	2.37732
184.582	3.75793
187.474	3.93344
190.367	3.6853
193.26	6.35049
196.153	8.34238
199.045	10.7561
201.938	8.52731
204.831	10.6248
207.723	12.3558
210.616	13.46
213.509	10.8283
216.401	7.47794
219.294	9.48422
222.187	8.56723
225.079	7.25592
227.972	4.60288
230.865	0.905792
233.758	0.526367
236.65	0.757446
239.543	3.00739
242.436	4.50122
245.328	2.09219
248.221	1.14862
251.114	3.52478
254.006	9.67053
256.899	19.7844
259.792	29.699
262.685	34.8032
265.577	39.1654
268.47	40.8524
271.363	38.6458
274.255	40.5543
277.148	36.3561
280.041	33.8561
282.933	26.446
285.826	24.4452
288.719	15.9026
291.612	13.1342
294.504	6.41681
297.397	4.03006
300.29	4.01181
303.182	1.17474
306.075	4.00259
308.968	1.71683
311.861	4.5199
314.753	6.09161
317.646	5.35168
320.539	9.85083
323.431	11.4026
326.324	9.80008
329.217	14.392
332.109	19.9817
335.002	20.0553
337.895	24.2962
340.788	22.5254
343.68	23.3657
346.573	22.9664
349.466	27.8707
352.358	21.0495
355.251	26.2226
358.144	27.8376
361.036	22.0355
363.929	24.4938
366.822	21.3722
369.715	23.9187
372.607	20.9778
375.5	15.3373
378.393	17.8953
381.285	18.8147
384.178	21.4593
387.071	25.963
389.964	23.8444
392.856	22.913
395.749	24.3788
398.642	25.8534
401.534	29.0651
404.427	26.8816
407.32	24.8397
410.212	24.8725
413.105	22.4345
415.998	18.4895
418.89	15.5942
421.783	13.6046
424.676	11.6628
427.569	5.95764
430.461	5.83282
433.354	6.32684
436.247	1.96646
439.139	1.30557
442.032	0.769073
444.925	2.17471
447.817	1.57466
450.71	0.246002
453.603	2.98671
456.496	1.35558
459.388	0.763138
462.281	3.97383
465.174	4.65118
468.066	3.39664
470.959	6.23978
473.852	4.5128
476.745	5.98135
479.637	8.0471
482.53	9.84332
485.423	10.5385
488.315	13.0348
491.208	16.1279
494.101	19.1658
496.993	22.5181
499.886	25.2582
502.779	28.1256
505.671	34.4856
508.564	33.9608
511.457	35.1758
514.35	37.4663
517.242	36.7704
520.135	39.813
523.028	37.8148
525.92	37.5242
528.813	35.6522
531.706	33.6877
534.598	34.336
537.491	28.9571
540.384	29.4168
543.277	24.635
546.169	22.3912
549.062	20.6932
551.955	19.9946
554.847	19.757
557.74	16.7997
560.633	13.0745
563.525	12.5338
566.418	10.8699
569.311	10.5719
572.204	9.57387
575.096	10.5404
577.989	8.50555
580.882	9.61371
583.774	7.29688
586.667	9.47713
589.56	7.80733
592.452	8.58945
595.345	6.82285
598.238	8.06915
601.131	3.67596
604.023	4.95354
606.916	2.96492
609.809	1.02788
612.701	1.27962
615.594	0.597137
618.487	2.2101
621.38	1.45354
624.272	1.14485
627.165	0.333725
630.058	0.48259
632.95	1.28311
635.843	2.94688
638.736	3.87134
641.628	6.66554
644.521	8.55791
647.414	9.63313
650.307	9.43321
653.199	6.42879
656.092	4.61761
658.985	4.6255
661.877	1.52194
664.77	2.68822
667.663	0.497345
670.555	0.225845
673.448	1.30887
676.341	4.07304
679.234	2.45203
682.126	2.62962
685.019	2.75826
687.912	3.35863
690.804	2.82443
693.697	3.63687
696.59	5.4935
699.482	5.62056
702.375	6.73924
705.268	5.27786
708.16	6.24876
711.053	7.95093
713.946	6.92163
716.839	7.0171
719.731	4.67613
722.624	5.53954
725.517	5.11096
728.409	5.62659
731.302	4.22986
734.195	4.74304
737.087	3.69338
739.98	2.11432
742.873	2.70595
745.766	0.517014
748.658	0.416534
751.551	3.77773
754.444	1.0701
757.336	1.82008
760.229	1.26831
763.122	0.703339
766.014	3.92693
768.907	0.217255
771.8	0.143837
774.693	1.27936
777.585	1.43419
780.478	0.240082
783.371	0.103859
786.263	2.14634
789.156	2.41007
792.049	3.43734
794.942	4.14258
797.834	3.92515
800.727	4.97504
803.62	3.73634
806.512	7.83223
809.405	7.76107
812.298	7.89694
815.19	9.70142
818.083	10.6006
820.976	10.8978
823.869	10.9041
826.761	11.6085
829.654	12.3909
832.547	11.5174
835.439	11.8002
838.332	14.0504
841.225	11.2951
844.117	10.2319
847.01	14.3549
849.903	14.3096
852.795	13.0432
855.688	14.1626
858.581	14.5389
861.474	13.4847
864.366	13.1688
867.259	12.0342
870.152	11.153
873.044	8.72426
875.937	8.84015
878.83	7.34377
881.722	4.38488
884.615	5.98058
887.508	4.64191
890.401	3.31924
893.293	2.10393
896.186	1.662
899.079	1.77216
901.971	1.51834
904.864	0.843102
907.757	0.832359
910.649	2.27393
913.542	0.837952
916.435	1.26498
919.328	1.76283
922.22	1.16851
925.113	2.18188
928.006	1.89468
930.898	2.95029
933.791	3.6357
936.684	1.37441
939.577	5.91919
942.469	7.55193
945.362	8.49258
948.255	6.25158
951.147	8.21142
954.04	9.05139
956.933	8.96761
959.825	9.39407
962.718	9.09122
965.611	9.37066
968.504	10.054
971.396	8.92339
974.289	7.96008
977.182	7.3625
980.074	6.73953
982.967	10.5948
985.86	9.14725
988.752	7.5452
991.645	8.72511
994.538	7.15795
997.431	5.79225
1000.32	7.66437
1003.22	5.98396
1006.11	6.32296
1009	6.72224
1011.89	5.27767
1014.79	6.55717
1017.68	6.41004
1020.57	5.71229
1023.47	6.3381
1026.36	6.64761
1029.25	4.96793
1032.14	4.94782
1035.04	4.02798
1037.93	3.04821
1040.82	2.99213
1043.71	2.39164
1046.61	1.38371
1049.5	3.18837
1052.39	0.876335
1055.29	1.20777
1058.18	1.41011
1061.07	0.970299
1063.96	1.6474
1066.86	0.608261
1069.75	1.50956
1072.64	2.54306
1075.53	0.189983
1078.43	0.327969
1081.32	0.402569
1084.21	0.359085
1087.1	0.903648
1090	0.300545
1092.89	2.78688
1095.78	2.14968
1098.67	1.96862
1101.57	3.32431
1104.46	3.02012
1107.35	2.83102
1110.25	1.07421
1113.14	2.54097
1116.03	2.12097
1118.92	2.47472
1121.82	1.98014
1124.71	3.81514
1127.6	3.01518
1130.49	4.5693
1133.39	2.45221
1136.28	2.95276
1139.17	0.892334
1142.07	3.6874
1144.96	1.08261
1147.85	2.92977
1150.74	2.3334
1153.64	2.02099
1156.53	3.24362
1159.42	1.44267
1162.31	1.69901
1165.21	2.33833
1168.1	1.59608
1170.99	2.57711
1173.88	1.22843
1176.78	1.10103
1179.67	0.451298
1182.56	1.16474
1185.46	0.052776
1188.35	2.65785
1191.24	4.11675
1194.13	0.718857
1197.03	0.854382
1199.92	1.29658
1202.81	0.870625
1205.7	2.10918
1208.6	1.49096
1211.49	0.254822
1214.38	1.23024
1217.28	1.58483
1220.17	1.5238
1223.06	2.6225
1225.95	1.47797
1228.85	3.59653
1231.74	1.29229
1234.63	1.74467
1237.53	2.01813
1240.42	2.51597
1243.31	1.43657
1246.2	2.82387
1249.1	2.18186
1251.99	0.616138
1254.88	1.37218
1257.77	0.703007
1260.67	3.1016
1263.56	1.23292
1266.45	1.68745
1269.34	0.044941
1272.24	0.188763
1275.13	3.36973
1278.02	1.64213
1280.91	0.778492
1283.81	0.023972
