Measurement: Raman, 532 nm, unoriented, Raman Data Processed
Mineral: Rhonite
Rruff sample: R060316
Ideal chemistry: Ca_4_(Mg_8_Fe^3+^_2_Ti^4+^_2_)O_4_[Si_6_Al_6_O_36_]
Locality: Nickenicher Sattel, Laacher See District, Eifel, Germany
Source: Michael Scott
Description: Brown bladed crystals
Measured chemistry: (Ca_1.53_Na_0.47_)_Σ=2_(Mg_2.90_Fe^3+^_2.02_Fe^2+^_0.43_Ti_0.57_Mn_0.07_Cr_0.01_)_Σ=6_(Si_3.30_Al_2.70_)_Σ=6_O_20_ ; Fe2 and Fe3 estimated by charge balance
Raman shift (cm-1)	intensity
183.059	0
185.951	0.617325
188.844	1.08112
191.737	1.99536
194.629	0.79995
197.522	1.63228
200.415	0.350014
203.308	1.14642
206.2	3.12189
209.093	2.79779
211.986	3.34622
214.878	1.52741
217.771	4.4002
220.664	3.6094
223.556	3.47718
226.449	2.9135
229.342	1.69035
232.234	1.80533
235.127	3.77914
238.02	1.68806
240.913	0.834656
243.805	2.31425
246.698	0.016647
249.591	0.242523
252.483	0.420746
255.376	1.97711
258.269	1.00413
261.161	3.43838
264.054	4.35107
266.947	6.1405
269.84	7.93035
272.732	8.47472
275.625	9.16323
278.518	9.80875
281.41	9.24549
284.303	6.76933
287.196	5.46913
290.089	4.62756
292.981	3.30679
295.874	2.45593
298.767	1.2513
301.659	1.94743
304.552	1.30042
307.445	0.726433
310.337	0.934921
313.23	0.360718
316.123	3.01727
319.015	1.55515
321.908	1.14694
324.801	0.616837
327.694	2.41767
330.586	4.35346
333.479	2.28899
336.372	1.60442
339.264	2.26001
342.157	3.40434
345.05	3.75686
347.942	6.10516
350.835	4.46242
353.728	6.92474
356.621	6.76283
359.513	7.36323
362.406	8.06169
365.299	6.49894
368.191	8.37222
371.084	8.96215
373.977	7.41714
376.87	5.61884
379.762	8.77231
382.655	7.45048
385.548	7.37162
388.44	7.66742
391.333	8.64275
394.226	10.4671
397.118	8.47378
400.011	10.5091
402.904	10.3476
405.796	10.1691
408.689	10.7727
411.582	11.9239
414.475	9.1739
417.367	10.1651
420.26	8.63728
423.153	6.91554
426.045	5.45579
428.938	5.4001
431.831	5.62129
434.724	4.86673
437.616	3.90091
440.509	4.32397
443.402	1.47202
446.294	3.29276
449.187	1.74107
452.08	0.302521
454.972	0.854675
457.865	0.075394
460.758	1.53123
463.651	0.456894
466.543	0.061378
469.436	1.89945
472.329	0.675949
475.221	0.845253
478.114	1.64959
481.007	0.610352
483.899	1.87876
486.792	2.61982
489.685	2.51059
492.577	4.05633
495.47	3.86981
498.363	5.48468
501.256	8.29195
504.148	8.30863
507.041	10.7519
509.934	11.3816
512.826	13.1816
515.719	12.7606
518.612	12.9395
521.505	15.6842
524.397	17.3145
527.29	16.143
530.183	16.0994
533.075	15.5572
535.968	15.371
538.861	15.0399
541.753	13.2497
544.646	14.0303
547.539	12.4596
550.432	13.6179
553.324	12.0773
556.217	13.6718
559.11	12.4237
562.002	9.54517
564.895	11.0595
567.788	10.8109
570.68	10.4568
573.573	9.95432
576.466	10.1213
579.359	7.42767
582.251	10.3177
585.144	8.8485
588.037	8.47572
590.929	6.62057
593.822	7.51947
596.715	5.49134
599.607	6.29044
602.5	4.0661
605.393	3.32231
608.285	2.11518
611.178	1.23184
614.071	2.68525
616.964	0.014671
619.856	2.14843
622.749	0.961823
625.642	0.839035
628.534	0.862366
631.427	0.565048
634.32	0.156319
637.212	0.400146
640.105	1.83781
642.998	0.930351
645.891	2.06342
648.783	1.6003
651.676	2.39897
654.569	2.14011
657.461	1.22012
660.354	2.19453
663.247	1.37523
666.139	0.46199
669.032	2.13793
671.925	2.71247
674.818	3.57593
677.71	2.33321
680.603	0.789757
683.496	4.13451
686.388	3.50355
689.281	5.72516
692.174	7.27051
695.067	6.26132
697.959	6.5484
700.852	8.00001
703.745	6.81537
706.637	8.76611
709.53	10.7586
712.423	10.923
715.315	9.41429
718.208	10.9901
721.101	9.61741
723.994	9.94624
726.886	9.05236
729.779	7.81291
732.672	7.72897
735.564	5.01852
738.457	4.94281
741.35	3.93582
744.242	3.1947
747.135	2.22398
750.028	1.10839
752.92	1.25677
755.813	1.33345
758.706	1.03468
761.599	1.25308
764.491	0.919243
767.384	0.942444
770.277	1.697
773.169	0.904305
776.062	1.26572
778.955	0.4576
781.847	0.305817
784.74	0.714748
787.633	0.411629
790.526	0.579891
793.418	1.80344
796.311	1.37307
799.204	1.21632
802.096	2.15941
804.989	2.34955
807.882	2.00565
810.774	2.27189
813.667	4.03819
816.56	2.84292
819.453	4.97694
822.345	4.71744
825.238	5.03024
828.131	3.05582
831.023	3.72836
833.916	4.97871
836.809	4.43615
839.702	4.85319
842.594	5.90808
845.487	4.91874
848.38	5.69854
851.272	5.96861
854.165	6.12448
857.058	4.50646
859.95	5.83652
862.843	5.19547
865.736	5.37392
868.629	5.08187
871.521	5.68658
874.414	4.9951
877.307	5.15429
880.199	4.93931
883.092	3.17747
885.985	1.92855
888.877	2.53966
891.77	1.40046
894.663	1.29578
897.556	1.54902
900.448	0.96854
903.341	0.256264
906.234	0.531986
909.126	0.162651
912.019	0.189739
914.912	0.623447
917.804	0.243797
920.697	0.499912
923.59	0.855694
926.482	1.35642
929.375	2.04738
932.268	1.19585
935.161	1.35401
938.053	1.09569
940.946	2.02903
943.839	0.13332
946.731	2.07395
949.624	2.64144
952.517	2.89003
955.409	2.91077
958.302	3.82203
961.195	2.36312
964.088	3.79087
966.98	1.88045
969.873	2.92137
972.766	3.81281
975.658	4.20341
978.551	4.45498
981.444	3.34427
984.337	4.98934
987.229	4.40562
990.122	3.47425
993.015	4.59656
995.907	3.41638
998.8	3.74123
1001.69	3.14152
1004.59	1.99237
1007.48	3.9907
1010.37	3.21416
1013.26	3.57419
1016.16	3.95176
1019.05	3.57994
1021.94	3.52601
1024.83	3.30194
1027.73	4.05072
1030.62	3.70934
1033.51	2.8159
1036.4	3.62318
1039.3	2.4427
1042.19	1.96903
1045.08	2.29711
1047.98	1.09847
1050.87	1.47457
1053.76	0.820683
1056.65	0.399792
1059.55	1.11518
1062.44	0.404316
1065.33	0.202454
1068.22	0.624897
1071.12	0.600109
1074.01	1.27868
1076.9	1.26784
1079.8	0.025356
1082.69	1.83003
1085.58	1.50679
1088.47	1.23862
1091.37	0.206455
1094.26	1.59457
1097.15	2.00882
1100.04	1.66429
1102.94	3.17465
1105.83	1.73823
1108.72	1.4803
1111.62	1.97109
1114.51	2.12877
1117.4	1.95339
1120.29	1.99718
1123.19	2.42253
1126.08	2.42624
1128.97	1.54247
1131.86	0.133736
1134.76	0.937561
1137.65	3.1375
1140.54	1.40383
1143.43	1.96422
1146.33	2.09365
1149.22	2.50303
1152.11	0.709644
1155.01	1.55275
1157.9	0.11507
1160.79	2.79129
1163.68	0.954971
1166.58	1.89245
1169.47	1.69138
1172.36	0.262691
1175.26	1.21416
1178.15	0.207199
1181.04	0.898846
1183.93	1.52116
1186.83	0.153606
1189.72	0.888245
1192.61	1.46228
1195.5	1.61132
1198.4	1.16928
1201.29	1.64808
1204.18	1.69642
1207.07	2.42911
1209.97	3.09256
1212.86	0.526684
1215.75	0.802258
1218.64	0.474091
1221.54	0.983486
1224.43	1.90683
1227.32	0.393467
1230.22	1.19033
1233.11	1.0584
1236	1.49944
1238.89	1.58335
1241.79	0.948006
1244.68	1.66043
1247.57	1.38464
1250.46	0.711338
1253.36	1.19169
1256.25	1.70613
1259.14	0.989868
1262.04	2.32231
1264.93	1.54905
1267.82	0.53442
1270.71	0.712498
1273.61	1.12983
1276.5	1.05008
1279.39	0.357697
1282.29	0.752422
1285.18	1.27615
1288.07	0.933125
1290.96	0.602711
1293.86	1.68195
1296.75	1.06467
1299.64	0.820473
1302.53	0.927647
