Measurement: Raman, 780 nm, unoriented, Raman Data Processed
Mineral: Ribbeite
Rruff sample: R140497
Ideal chemistry: Mn^2+^_5_(SiO_4_)_2_(OH)_2_
Locality: Kombat mine, Kombat, Grootfontein District, Otjozondjupa Region, Namibia
Source: Rock Currier
Description: Transparent to translucent pink fragments in a gelatin capsule
Raman shift (cm-1)	intensity
110.362	0
113.737	2.52789
117.112	3.54407
120.487	1.79974
123.862	0.477051
127.237	0.298523
130.611	1.22083
133.986	5.80389
137.361	10.3805
140.736	15.1307
144.111	14.7561
147.485	12.0089
150.86	10.1934
154.235	8.099
157.61	7.93658
160.985	3.76813
164.359	4.16711
167.734	5.16882
171.109	3.19836
174.484	2.44794
177.859	2.70056
181.234	2.88519
184.608	2.57929
187.983	2.5871
191.358	2.85547
194.733	1.8219
198.108	3.33935
201.482	2.79059
204.857	1.43134
208.232	3.38538
211.607	3.54382
214.982	4.36023
218.357	1.75897
221.731	3.88165
225.106	4.58942
228.481	3.72247
231.856	3.77075
235.231	6.01886
238.605	3.30786
241.98	4.578
245.355	3.29712
248.73	3.71997
252.105	2.73163
255.48	0.618652
258.854	1.76801
262.229	0.221436
265.604	0.817627
268.979	2.32104
272.354	2.12378
275.728	2.11121
279.103	2.7113
282.478	1.98352
285.853	0.957886
289.228	2.08508
292.602	3.4364
295.977	4.40802
299.352	5.48639
302.727	5.89752
306.102	4.47723
309.476	4.52362
312.851	5.21051
316.226	5.9281
319.601	4.17737
322.976	2.85767
326.351	2.03809
329.725	1.53186
333.1	0.506226
336.475	2.64764
339.85	2.17731
343.225	1.19324
346.599	0.47876
349.974	0.881592
353.349	0.283447
356.724	0.916443
360.099	0.801697
363.474	2.16003
366.848	0.628113
370.223	2.06989
373.598	1.40906
376.973	1.7052
380.348	2.88391
383.722	3.08545
387.097	3.63293
390.472	4.46277
393.847	5.05103
397.222	4.81268
400.596	3.28674
403.971	4.27246
407.346	3.99414
410.721	2.88806
414.096	3.25354
417.471	2.6532
420.845	2.4704
424.22	2.3642
427.595	3.8847
430.97	4.1745
434.345	2.77325
437.719	1.9071
441.094	0.971802
444.469	0.477356
447.844	3.06146
451.219	2.49042
454.594	2.59021
457.968	5.41016
461.343	5.28174
464.718	4.40204
468.093	6.30133
471.468	7.42767
474.842	5.69214
478.217	3.7641
481.592	4.70203
484.967	5.59839
488.342	5.5033
491.716	4.75671
495.091	4.91022
498.466	3.17065
501.841	1.03912
505.216	1.99036
508.591	2.92969
511.965	1.76446
515.34	1.18811
518.715	0.876221
522.09	0.462402
525.465	0.253479
528.84	0.683105
532.214	0.246216
535.589	0.610962
538.964	0.718628
542.339	0.514648
545.713	0.779846
549.088	0.281738
552.463	1.3634
555.838	1.32245
559.213	1.98083
562.588	1.19269
565.962	0.351013
569.337	3.3128
572.712	3.07538
576.087	4.31354
579.462	3.80322
582.837	0.87915
586.211	0.357666
589.586	0.093384
592.961	2.15021
596.336	2.88324
599.711	1.34033
603.085	3.65295
606.46	5.52838
609.835	6.63538
613.21	11.0075
616.585	10.6547
619.96	7.71857
623.334	5.53058
626.709	5.71527
630.084	3.05103
633.459	3.59808
636.833	3.71857
640.208	3.85126
643.583	1.83722
646.958	1.68439
650.333	0.504272
653.708	0.245178
657.082	2.4129
660.457	2.08228
663.832	1.95245
667.207	1.94141
670.582	2.18628
673.957	0.990051
677.331	2.47455
680.706	2.47412
684.081	2.2395
687.456	1.64587
690.831	0.903259
694.205	0.554932
697.58	0.368652
700.955	0.090515
704.33	0.236755
707.705	0.976196
711.079	0.737122
714.454	2.27002
717.829	3.38904
721.204	2.80542
724.579	1.58789
727.953	0.760193
731.328	2.73962
734.703	3.94098
738.078	3.75195
741.453	2.54724
744.828	1.71344
748.202	2.0993
751.577	1.23981
754.952	1.66516
758.327	1.40961
761.702	0.858032
765.077	1.19165
768.451	0.319763
771.826	0.288818
775.201	5.44049
778.576	1.76788
781.951	2.05994
785.325	3.04272
788.7	2.71661
792.075	2.81818
795.45	5.43555
798.825	8.45227
802.199	15.5696
805.574	34.7888
808.949	60.8873
812.324	83.7073
815.699	93.0883
819.073	87.9716
822.448	71.1476
825.823	47.9395
829.198	33.6881
832.573	28.4133
835.948	26.9105
839.322	28.2569
842.697	24.9386
846.072	22.4739
849.447	17.4136
852.822	12.6363
856.197	8.96521
859.571	7.41376
862.946	6.0899
866.321	3.96808
869.696	3.034
873.071	2.2027
876.445	0.413208
879.82	0.740906
883.195	1.16913
886.57	2.37018
889.945	2.42767
893.319	4.51514
896.694	2.78668
900.069	1.78833
903.444	0.806152
906.819	0.951965
910.193	0.226685
913.568	0.63031
916.943	0.726318
920.318	0.476685
923.693	1.26617
927.068	0.673401
930.442	0.273987
933.817	1.64233
937.192	3.69934
940.567	4.47504
943.942	4.44116
947.317	3.0257
950.691	3.26446
954.066	2.50159
957.441	2.23724
960.816	1.32294
964.191	0.094604
967.565	1.92645
970.94	0.739014
974.315	0.854919
977.69	0.802002
981.065	0.117981
984.439	1.00647
987.814	0.968872
991.189	0.017273
994.564	1.42389
997.939	1.42395
1001.31	2.224
1004.69	4.27319
1008.06	3.26068
1011.44	2.74426
1014.81	2.74188
1018.19	3.0625
1021.56	2.09863
1024.94	3.0672
1028.31	1.5025
1031.69	1.34332
1035.06	2.28253
1038.44	3.86285
1041.81	2.81885
1045.19	1.81909
1048.56	1.01764
1051.94	4.38153
1055.31	0.305603
1058.68	1.56555
1062.06	4.19141
1065.43	4.00293
1068.81	3.85107
1072.18	3.04785
1075.56	3.45135
1078.93	2.25684
1082.31	2.76623
1085.68	2.4613
1089.06	4.16119
1092.43	2.63769
1095.81	0.264099
1099.18	2.15411
1102.56	1.8642
1105.93	0.78772
1109.31	2.05835
1112.68	0.335693
1116.06	0.568848
1119.43	1.10614
1122.81	0.376038
1126.18	0.256348
1129.56	0.556213
1132.93	1.95459
1136.31	1.95526
1139.68	2.69379
1143.06	3.09216
1146.43	3.44482
1149.81	2.79785
1153.18	3.13324
1156.56	2.94598
1159.93	4.03107
1163.31	4.38098
1166.68	5.39557
1170.05	5.12329
1173.43	6.40479
1176.8	6.45904
1180.18	7.05286
1183.55	5.38806
1186.93	5.10889
1190.3	4.224
1193.68	3.99048
1197.05	3.79755
1200.43	4.04797
1203.8	4.89423
1207.18	3.83209
1210.55	3.10382
1213.93	3.0603
1217.3	2.74847
1220.68	1.08087
1224.05	0.052734
1227.43	2.85522
1230.8	1.52869
1234.18	1.81256
1237.55	1.66229
1240.92	0.138306
1244.3	0.362915
1247.67	0.185364
1251.05	2.80499
1254.42	3.13641
1257.8	2.03558
1261.17	3.48914
1264.55	2.77875
1267.92	3.52887
1271.3	1.61505
1274.67	0.111816
1278.05	1.59265
1281.42	1.3924
1284.8	0
