Measurement: Raman, 780 nm, unoriented, Raman Data Processed
Mineral: Richterite
Rruff sample: R050414
Ideal chemistry: Na(CaNa)Mg_5_Si_8_O_22_(OH)_2_
Locality: Kokcha Valley, Badakhshan, Afghanistan
Source: Marcus Origlieri
Description: Transparent pale yellowish-green bladed crystal
Measured chemistry: (Na_0.67_K_0.33_)_Σ=1_(Ca_1.19_Na_0.81_)_Σ=2_Mg_5.00_(Si_7.80_Al_0.19_Ti_0.01_)_Σ=8_O_22_((OH)_1.58_F_0.42_)_Σ=2_
Raman shift (cm-1)	intensity
118.558	0
121.933	43.8131
125.307	40.5327
128.682	60.7106
132.057	53.1062
135.432	55.4955
138.807	89.7244
142.181	158.64
145.556	309.998
148.931	410.992
152.306	469.409
155.681	567.747
159.055	735.722
162.43	569.737
165.805	457.516
169.18	502.807
172.555	406.582
175.93	332.99
179.304	321.029
182.679	254.541
186.054	118.808
189.429	178.066
192.804	101.597
196.179	66.2477
199.553	122.399
202.928	181.029
206.303	345.605
209.678	481.311
213.053	491.916
216.427	460.368
219.802	570.16
223.177	703.452
226.552	841.506
229.927	1014.83
233.302	926.317
236.676	591.329
240.051	303.792
243.426	213.324
246.801	193.943
250.176	171.972
253.55	86.305
256.925	30.1873
260.3	14.4921
263.675	20.527
267.05	7.36355
270.425	60.922
273.799	38.1968
277.174	31.1567
280.549	25.1378
283.924	134.663
287.299	79.2517
290.673	155.472
294.048	119.732
297.423	82.3029
300.798	23.7015
304.173	50.0598
307.548	107.648
310.922	31.1895
314.297	28.1507
317.672	81.6803
321.047	43.7274
324.421	122.185
327.796	19.966
331.171	91.7792
334.546	74.9968
337.921	225.279
341.296	153.841
344.67	225.005
348.045	101.696
351.42	139.505
354.795	125.664
358.17	287.142
361.545	224.875
364.919	213.174
368.294	243.687
371.669	261.406
375.044	157.07
378.419	155.348
381.793	145.299
385.168	0.008671
388.543	0.214439
391.918	176.947
395.293	328.432
398.668	387.747
402.042	283.486
405.417	89.3889
408.792	11.2378
412.167	23.1526
415.542	25.276
418.916	43.8306
422.291	179.882
425.666	242.703
429.041	113.483
432.416	147.416
435.791	148.679
439.165	118.939
442.54	103.697
445.915	144.473
449.29	124.177
452.665	92.4069
456.039	109.555
459.414	277.981
462.789	360.92
466.164	309.547
469.539	483.646
472.913	433.627
476.288	316.871
479.663	267.412
483.038	307.182
486.413	228.993
489.788	294.308
493.162	194.734
496.537	172.153
499.912	165.821
503.287	83.8125
506.662	231.214
510.036	177.431
513.411	297.48
516.786	380.298
520.161	352.197
523.536	288.077
526.91	222.125
530.285	158.922
533.66	66.3821
537.035	6.23494
540.41	4.67078
543.785	18.4078
547.159	69.1977
550.534	9.20382
553.909	5.7217
557.284	6.13833
560.659	1.8541
564.034	5.31251
567.408	6.98127
570.783	75.209
574.158	46.9958
577.533	24.3676
580.908	55.5032
584.282	84.1182
587.657	219.712
591.032	321.671
594.407	158.701
597.782	34.9973
601.156	95.9562
604.531	104.888
607.906	28.9501
611.281	2.83505
614.656	46.5643
618.03	125.76
621.405	123.674
624.78	146.501
628.155	200.404
631.53	58.3389
634.905	91.0771
638.279	6.778
641.654	140.565
645.029	58.0394
648.404	162.899
651.779	46.2692
655.154	21.6723
658.528	128.484
661.903	175.912
665.278	336.874
668.653	590.89
672.028	569.232
675.402	894.731
678.777	1464.48
682.152	2012.72
685.527	1736.79
688.902	947.753
692.277	378.059
695.651	307.921
699.026	140.274
702.401	18.3853
705.776	6.86163
709.151	65.2809
712.525	93.0882
715.9	94.8956
719.275	175.763
722.65	115.314
726.025	92.5107
729.399	15.792
732.774	155.814
736.149	95.323
739.524	142.522
742.899	74.4143
746.274	204.542
749.648	286.884
753.023	110.505
756.398	85.2768
759.773	85.3002
763.148	51.0305
766.523	2.50867
769.897	17.5483
773.272	81.6527
776.647	121.477
780.022	90.6972
783.396	48.3778
786.771	18.9607
790.146	19.1927
793.521	14.3398
796.896	130.298
800.271	160.828
803.645	56.9902
807.02	258.808
810.395	262.688
813.77	138.561
817.145	220.85
820.519	135.04
823.894	160.663
827.269	192.572
830.644	345.651
834.019	304.74
837.394	303.37
840.768	236.768
844.143	182.918
847.518	219.769
850.893	212.987
854.268	174.355
857.643	136.555
861.017	173.763
864.392	279.179
867.767	237.4
871.142	208.682
874.517	119.276
877.891	153.451
881.266	2.44991
884.641	91.8895
888.016	14.066
891.391	73.8915
894.765	116.352
898.14	54.8162
901.515	89.9003
904.89	4.05573
908.265	31.8001
911.64	8.31218
915.014	154.277
918.389	158.425
921.764	202.851
925.139	189.951
928.514	344.512
931.888	295.921
935.263	224.965
938.638	147.871
942.013	258.294
945.388	297.007
948.763	222.698
952.137	252.04
955.512	326.019
958.887	284.749
962.262	244.712
965.637	152.624
969.011	82.8397
972.386	13.1661
975.761	69.7526
979.136	27.6405
982.511	2.50108
985.885	65.491
989.26	119.632
992.635	74.3367
996.01	261.229
999.385	312.408
1002.76	192.885
1006.13	101.534
1009.51	144.08
1012.88	231.894
1016.26	324.747
1019.63	349.792
1023.01	385.172
1026.38	463.246
1029.76	464.619
1033.13	396.11
1036.51	575.606
1039.88	527.163
1043.26	483.49
1046.63	378.889
1050.01	439.555
1053.38	521.41
1056.76	520.91
1060.13	594.012
1063.51	685.877
1066.88	709.109
1070.26	699.105
1073.63	670.928
1077.01	828.97
1080.38	698.154
1083.76	590.793
1087.13	584.995
1090.51	523.171
1093.88	534.214
1097.25	446.095
1100.63	461.128
1104	251.539
1107.38	20.0191
1110.75	31.8908
1114.13	41.56
1117.5	32.5429
1120.88	6.56581
1124.25	117.798
1127.63	4.0686
1131	17.9616
1134.38	13.7203
1137.75	11.2648
1141.13	107.862
1144.5	15.6492
1147.88	73.9276
1151.25	204.691
1154.63	155.833
1158	269.765
1161.38	285.408
1164.75	279.571
1168.13	256.144
1171.5	274.508
1174.88	449.993
1178.25	418.659
1181.62	415.485
1185	424.489
1188.38	537.857
1191.75	341.504
1195.12	226.772
1198.5	347.016
1201.87	342.122
1205.25	277.345
1208.62	195.81
1212	285.453
1215.37	223.909
1218.75	250.571
1222.12	109.554
1225.5	3.73953
1228.87	49.5496
1232.25	60.5729
1235.62	25.1393
1239	81.3769
1242.37	19.2363
1245.75	89.5517
1249.12	23.285
1252.5	31.2701
1255.87	59.7115
1259.25	26.1119
1262.62	85.4473
1265.99	101.628
1269.37	139.325
1272.74	179.716
1276.12	134.314
1279.49	181.209
1282.87	84.7341
1286.24	0
