Measurement: Raman, 532 nm, unoriented, Raman Data Processed
Mineral: Richetite
Rruff sample: R090053
Ideal chemistry: (Fe^3+^,Mg)_x_Pb^2+^_8.6_(U^6+^O_2_)_36_O_36_(OH)_24_41H_2_O
Locality: Shinkolobwe mine, Katanga, Congo
Source: William W. Pinch
Description: Brown plates. Sample is from the same specimen used in the Burns (1998) study.
Raman shift (cm-1)	intensity
153.903	0
156.796	7.94533
159.689	5.30936
162.581	12.0951
165.474	12.5074
168.367	14.2339
171.259	3.85375
174.152	3.97687
177.045	3.39691
179.938	1.26268
182.83	4.68558
185.723	3.26003
188.616	5.35106
191.508	10.841
194.401	15.812
197.294	21.5325
200.186	24.4838
203.079	25.6212
205.972	28.2699
208.864	20.8337
211.757	19.7031
214.65	16.232
217.543	6.27556
220.435	3.98196
223.328	4.03888
226.221	0.95343
229.113	6.15324
232.006	0.950378
234.899	1.77473
237.792	0.903244
240.684	9.47342
243.577	14.9897
246.47	18.1517
249.362	27.6843
252.255	37.1201
255.148	42.8475
258.041	44.1029
260.933	42.4245
263.826	52.1071
266.719	47.9663
269.611	38.2567
272.504	37.9937
275.397	27.8898
278.289	21.9901
281.182	19.0167
284.075	21.8386
286.967	19.2065
289.86	14.5215
292.753	19.1756
295.646	13.2831
298.538	16.9573
301.431	12.0175
304.324	17.2355
307.216	13.4586
310.109	14.4867
313.002	6.47086
315.895	14.3276
318.787	20.3692
321.68	18.9652
324.573	26.9039
327.465	26.7173
330.358	31.6682
333.251	24.5444
336.144	23.9759
339.036	23.0273
341.929	28.4462
344.822	19.4008
347.714	22.3964
350.607	16.0608
353.5	14.7555
356.392	15.3578
359.285	7.66617
362.178	9.47638
365.07	4.42035
367.963	1.97812
370.856	2.08072
373.749	4.72569
376.641	2.58063
379.534	0.253525
382.427	4.45009
385.32	0.613312
388.212	6.00291
391.105	1.62274
393.998	2.78259
396.89	7.41025
399.783	4.63626
402.676	7.62039
405.568	9.31731
408.461	12.3422
411.354	8.16307
414.247	16.9271
417.139	16.0133
420.032	26.006
422.925	33.4927
425.817	34.658
428.71	48.0166
431.603	55.0485
434.495	59.0815
437.388	62.7024
440.281	64.5797
443.173	65.8337
446.066	68.8016
448.959	72.134
451.852	79.4573
454.744	94.4768
457.637	97.0543
460.53	106.592
463.423	109.264
466.315	100.596
469.208	96.9262
472.101	76.4798
474.993	62.9332
477.886	47.5549
480.779	40.2827
483.671	33.1242
486.564	20.3385
489.457	15.9598
492.349	11.1186
495.242	7.02379
498.135	8.72589
501.028	5.12096
503.92	2.41327
506.813	2.20226
509.706	1.4827
512.598	0.57077
515.491	0.142456
518.384	1.49287
521.277	0.193192
524.169	7.51447
527.062	2.21745
529.955	1.65064
532.847	8.39682
535.74	11.1134
538.633	13.0218
541.525	12.6789
544.418	18.6664
547.311	17.8035
550.204	23.1693
553.096	23.8566
555.989	18.4318
558.882	18.5175
561.774	18.8295
564.667	18.8397
567.56	15.9036
570.452	15.54
573.345	11.6646
576.238	11.7958
579.131	7.16945
582.023	6.66516
584.916	8.01688
587.809	6.44052
590.701	7.19052
593.594	4.67007
596.487	6.77065
599.38	3.59128
602.272	0.696854
605.165	2.0909
608.058	0.432663
610.95	1.25604
613.843	1.4865
616.736	4.22028
619.629	2.515
622.521	5.03256
625.414	0.956726
628.307	1.27455
631.199	3.52606
634.092	4.55623
636.985	4.32548
639.877	0.830872
642.77	2.01945
645.663	3.3138
648.556	0.219009
651.448	3.06647
654.341	0.169296
657.234	0.353485
660.126	1.7782
663.019	1.97629
665.912	0.075348
668.804	0.344986
671.697	1.15968
674.59	0.038742
677.482	1.3058
680.375	3.44299
683.268	5.28415
686.161	10.8684
689.053	8.79649
691.946	11.4414
694.839	14.7932
697.731	12.839
700.624	11.5977
703.517	12.2724
706.409	9.9344
709.302	11.5874
712.195	6.98189
715.088	4.34265
717.98	3.19417
720.873	10.144
723.766	5.29564
726.659	5.62022
729.551	4.01599
732.444	2.1075
735.337	0.353622
738.229	0.146896
741.122	0.172073
744.015	3.19438
746.907	2.86099
749.8	5.23335
752.693	7.47853
755.586	11.9878
758.478	21.9311
761.371	24.4151
764.264	40.5334
767.156	54.4015
770.049	70.3022
772.942	93.1712
775.835	111.617
778.727	132.246
781.62	153.944
784.513	178.62
787.405	203.817
790.298	235.33
793.191	270.1
796.083	287.929
798.976	284.56
801.869	278.731
804.761	266.674
807.654	244.48
810.547	217.061
813.44	182.192
816.332	149.754
819.225	111.003
822.118	88.1904
825.01	59.071
827.903	39.5683
830.796	28.8201
833.688	23.4763
836.581	16.2023
839.474	11.127
842.367	7.8766
845.259	10.3455
848.152	4.55309
851.045	2.69049
853.937	3.40723
856.83	1.9212
859.723	1.98412
862.616	2.00807
865.508	4.15388
868.401	0.825409
871.294	1.57929
874.186	1.90362
877.079	1.9191
879.972	0.293884
882.865	2.85036
885.757	4.88718
888.65	0.96698
891.543	5.0928
894.435	6.30466
897.328	4.35007
900.221	1.7424
903.113	4.19222
906.006	3.60835
908.899	4.78409
911.792	2.76698
914.684	7.62277
917.577	9.84041
920.47	8.48819
923.362	4.40825
926.255	5.5321
929.148	7.31409
932.04	8.42867
934.933	12.0246
937.826	10.1914
940.719	12.353
943.611	16.4336
946.504	21.89
949.397	20.1446
952.289	24.9347
955.182	26.892
958.075	33.1377
960.967	35.6927
963.86	42.1571
966.753	30.5767
969.646	19.4568
972.538	14.0154
975.431	8.03116
978.324	7.24797
981.216	6.41264
984.109	1.38229
987.002	3.03654
989.894	3.89932
992.787	3.8605
995.68	2.49058
998.573	0.932907
1001.47	1.93385
1004.36	2.86159
1007.25	5.66563
1010.14	4.48404
1013.04	3.47423
1015.93	3.45842
1018.82	1.18253
1021.71	1.71658
1024.61	3.38776
1027.5	1.64189
1030.39	2.95674
1033.29	3.39197
1036.18	3.75005
1039.07	0.665161
1041.96	2.9457
1044.86	2.92903
1047.75	2.00288
1050.64	0.020203
1053.53	4.33826
1056.43	3.60703
1059.32	6.39432
1062.21	3.49223
1065.11	8.43642
1068	1.49112
1070.89	4.73943
1073.78	1.14246
1076.68	1.40427
1079.57	2.41995
1082.46	5.51834
1085.35	4.06656
1088.25	3.07524
1091.14	0.58197
1094.03	2.30858
1096.92	1.95004
1099.82	3.16988
1102.71	2.07216
1105.6	0.469147
1108.49	2.52995
1111.39	3.74979
1114.28	6.44305
1117.17	2.41664
1120.07	6.16336
1122.96	1.86491
1125.85	1.90518
1128.74	5.96857
1131.64	1.74071
1134.53	4.7195
1137.42	3.90108
1140.32	5.40717
1143.21	0.208679
1146.1	1.18498
1148.99	7.01666
1151.89	4.69209
1154.78	5.12436
1157.67	2.42502
1160.56	5.85979
1163.46	3.7214
1166.35	3.31889
1169.24	3.87218
1172.13	0.908798
1175.03	6.25871
1177.92	0.150543
1180.81	2.59496
1183.71	5.24528
1186.6	1.6172
1189.49	6.18161
1192.38	2.31584
1195.28	5.18149
1198.17	3.29257
1201.06	4.45378
1203.95	4.034
1206.85	0.355545
1209.74	3.54388
1212.63	2.82245
1215.53	0.083008
1218.42	5.75229
1221.31	2.63744
1224.2	5.62498
1227.1	3.9883
1229.99	3.13652
1232.88	2.48285
1235.77	0.23938
1238.67	5.16303
1241.56	1.3898
1244.45	0.728699
1247.35	5.34016
1250.24	3.00406
1253.13	5.87427
1256.02	3.99829
1258.92	4.02838
1261.81	6.07812
1264.7	4.96368
1267.59	6.72351
1270.49	3.62213
1273.38	2.30148
1276.27	4.74265
1279.16	4.40016
1282.06	3.89703
1284.95	4.078
1287.84	7.73543
1290.74	0.517929
1293.63	6.81978
1296.52	3.35394
1299.41	0.170029
