Measurement: Raman, 780 nm, unoriented, Raman Data Processed
Mineral: Richetite
Rruff sample: R090053
Ideal chemistry: (Fe^3+^,Mg)_x_Pb^2+^_8.6_(U^6+^O_2_)_36_O_36_(OH)_24_41H_2_O
Locality: Shinkolobwe mine, Katanga, Congo
Source: William W. Pinch
Description: Brown plates. Sample is from the same specimen used in the Burns (1998) study.
Raman shift (cm-1)	intensity
92.0254	0
95.4002	4.58356
98.775	2.02679
102.15	7.1738
105.525	8.1317
108.9	10.4701
112.274	8.83275
115.649	0.49263
119.024	6.46803
122.399	10.3852
125.773	5.83493
129.148	5.73514
132.523	0.408127
135.898	3.8102
139.273	7.44331
142.648	0.226624
146.022	4.16592
149.397	4.58219
152.772	11.5257
156.147	10.0189
159.522	1.89146
162.897	5.30502
166.271	10.0758
169.646	8.95871
173.021	3.82216
176.396	3.5114
179.771	3.59174
183.145	8.84741
186.52	14.7826
189.895	21.2305
193.27	26.059
196.645	34.7988
200.019	40.5392
203.394	50.3746
206.769	47.7235
210.144	42.577
213.519	35.7825
216.893	28.6246
220.268	18.3238
223.643	10.2688
227.018	3.67747
230.393	5.94415
233.768	4.4852
237.142	0.111801
240.517	3.03894
243.892	5.26463
247.267	2.72281
250.642	8.68871
254.017	9.61845
257.391	7.65819
260.766	7.60236
264.141	11.0937
267.516	9.10437
270.891	13.4689
274.265	17.1397
277.64	10.9719
281.015	11.6091
284.39	13.5139
287.765	12.7727
291.139	11.2364
294.514	14.2188
297.889	5.66813
301.264	15.5985
304.639	6.01624
308.014	5.52709
311.388	8.41278
314.763	3.61201
318.138	7.59939
321.513	10.6046
324.888	8.38216
328.262	11.2122
331.637	10.5037
335.012	7.26929
338.387	3.90655
341.762	2.42473
345.137	5.46852
348.511	1.22131
351.886	2.91079
355.261	4.00022
358.636	5.549
362.01	2.9864
365.385	1.42203
368.76	0.960213
372.135	2.52129
375.51	2.51902
378.885	0.158417
382.259	2.15807
385.634	4.49329
389.009	14.0356
392.384	8.49729
395.759	11.5957
399.134	10.6165
402.508	9.76649
405.883	7.13752
409.258	8.2779
412.633	0.039673
416.008	9.29073
419.382	5.35061
422.757	6.36049
426.132	10.4062
429.507	14.4613
432.882	15.8699
436.257	12.3634
439.631	14.8083
443.006	14.3184
446.381	15.0114
449.756	15.6343
453.13	21.2865
456.505	25.5925
459.88	25.1411
463.255	25.5749
466.63	27.4044
470.005	26.156
473.379	20.5689
476.754	19.8437
480.129	9.20258
483.504	12.0433
486.879	6.52675
490.253	6.30724
493.628	4.2364
497.003	4.43426
500.378	0.016556
503.753	2.85161
507.128	0.952286
510.502	2.23581
513.877	1.56097
517.252	0.90966
520.627	0.554092
524.002	8.01543
527.376	2.29932
530.751	3.70919
534.126	6.19066
537.501	8.83533
540.876	7.21377
544.25	14.1911
547.625	9.52776
551	13.6457
554.375	6.18791
557.75	9.06934
561.125	5.04753
564.499	7.15244
567.874	1.30551
571.249	6.9927
574.624	4.58173
577.999	2.56546
581.374	2.13164
584.748	3.84066
588.123	6.55053
591.498	3.65307
594.873	1.87268
598.248	1.82635
601.622	1.1218
604.997	4.37573
608.372	3.84689
611.747	1.87228
615.122	8.28516
618.496	2.05475
621.871	7.73449
625.246	1.64443
628.621	4.02222
631.996	3.67456
635.37	4.30434
638.745	1.06576
642.12	2.61474
645.495	3.64169
648.87	0.163902
652.245	1.38644
655.619	3.44526
658.994	1.12949
662.369	4.73063
665.744	2.07314
669.119	1.97507
672.494	1.34794
675.868	1.32233
679.243	4.4656
682.618	0.099594
685.993	1.74195
689.368	5.93217
692.742	5.97593
696.117	5.42087
699.492	2.94111
702.867	7.15517
706.242	6.09335
709.616	5.91902
712.991	1.34167
716.366	2.93438
719.741	3.66855
723.116	3.71006
726.49	0.503609
729.865	1.37052
733.24	0.050919
736.615	4.65061
739.99	0.852188
743.365	6.12692
746.739	6.20355
750.114	3.86078
753.489	6.26461
756.864	8.56249
760.239	12.7999
763.614	15.6618
766.988	20.2143
770.363	30.295
773.738	37.3331
777.113	49.9303
780.487	70.7277
783.862	86.7859
787.237	111.571
790.612	151.772
793.987	170.259
797.362	171.504
800.736	154.028
804.111	124.889
807.486	100.955
810.861	77.7337
814.236	60.225
817.611	47.5838
820.985	36.7816
824.36	22.3491
827.735	16.4001
831.11	13.4936
834.485	5.90334
837.859	6.7291
841.234	12.2238
844.609	0.481621
847.984	4.74162
851.359	1.58644
854.734	1.05775
858.108	0.219864
861.483	0.547798
864.858	1.31814
868.233	2.90628
871.607	4.2009
874.982	0.195313
878.357	4.12481
881.732	1.06072
885.107	6.07051
888.482	6.11047
891.856	3.49891
895.231	3.29252
898.606	3.81175
901.981	1.62477
905.356	4.31053
908.731	2.37122
912.105	7.68893
915.48	3.40284
918.855	3.52915
922.23	7.31499
925.605	5.48993
928.979	6.6114
932.354	8.06834
935.729	6.24224
939.104	16.3271
942.479	18.0741
945.854	22.4464
949.228	24.9923
952.603	36.9391
955.978	45.3429
959.353	52.9695
962.727	62.0657
966.102	50.8444
969.477	34.3231
972.852	19.8866
976.227	9.2665
979.602	6.36971
982.976	7.66904
986.351	8.85773
989.726	3.45682
993.101	3.47089
996.476	5.47194
999.851	6.85986
1003.23	3.34465
1006.6	5.19131
1009.98	0.827667
1013.35	3.27909
1016.73	6.66708
1020.1	3.06996
1023.47	4.22932
1026.85	5.02046
1030.22	3.23366
1033.6	0.346733
1036.97	1.30561
1040.35	3.9762
1043.72	11.6819
1047.1	2.208
1050.47	3.4884
1053.85	1.78936
1057.22	7.1544
1060.6	5.85709
1063.97	4.01858
1067.35	2.56738
1070.72	0.05719
1074.1	3.76649
1077.47	5.1013
1080.85	1.74801
1084.22	2.83045
1087.6	8.55585
1090.97	8.08956
1094.35	6.67232
1097.72	8.49499
1101.1	3.2642
1104.47	4.03979
1107.84	2.15038
1111.22	3.5518
1114.59	2.47537
1117.97	6.17384
1121.34	3.48704
1124.72	7.88522
1128.09	7.77809
1131.47	1.8264
1134.84	4.486
1138.22	5.56729
1141.59	2.59425
1144.97	1.33685
1148.34	12.0099
1151.72	4.31863
1155.09	4.16115
1158.47	1.90459
1161.84	7.37479
1165.22	1.71789
1168.59	6.28336
1171.97	7.54365
1175.34	3.49323
1178.72	1.33893
1182.09	6.16785
1185.46	1.50079
1188.84	10.5195
1192.21	9.035
1195.59	9.50002
1198.96	4.3097
1202.34	0.640991
1205.71	3.95849
1209.09	6.32313
1212.46	6.2486
1215.84	3.6794
1219.21	2.40201
1222.59	1.94782
1225.96	4.97592
1229.34	1.10315
1232.71	4.619
1236.09	3.11577
1239.46	8.366
1242.84	5.79863
1246.21	2.98383
1249.59	7.61772
1252.96	7.71794
1256.34	6.78266
1259.71	4.05985
1263.09	5.40844
1266.46	3.86882
1269.84	4.59069
1273.21	7.19987
1276.59	5.05541
1279.96	0.73671
1283.34	0.847717
