Measurement: Raman, 780 nm, unoriented, Raman Data Processed
Mineral: Richelsdorfite
Rruff sample: R130552
Ideal chemistry: Ca_2_Cu^2+^_5_Sb^5+^(As^5+^O_4_)_4_(OH)_6_Cl6H_2_O
Locality: Silberberg, Brixlegg, Austria
Source: Bob Jenkins
Description: Platy blue crystals, with a 2-fold twin around [110]
Raman shift (cm-1)	intensity
100.36	0
103.735	2.00453
107.109	6.62707
110.484	11.5359
113.859	15.4182
117.234	15.0742
120.609	13.6949
123.984	12.2412
127.358	9.56886
130.733	9.23299
134.108	6.44587
137.483	3.58311
140.858	1.11819
144.232	0.973335
147.607	0.571537
150.982	0.081062
154.357	0.956985
157.732	0.751284
161.107	0.246393
164.481	0.807137
167.856	0.496906
171.231	1.61418
174.606	1.99169
177.981	2.17135
181.355	0.851248
184.73	1.33355
188.105	1.93011
191.48	3.15106
194.855	2.50409
198.229	3.24538
201.604	2.99015
204.979	3.03424
208.354	2.67008
211.729	3.71878
215.103	3.8639
218.478	2.97353
221.853	3.98095
225.228	2.4989
228.603	1.94794
231.978	1.45956
235.352	1.32828
238.727	1.88527
242.102	1.67654
245.477	1.96264
248.852	0.504883
252.226	1.06808
255.601	1.99983
258.976	0.763987
262.351	1.30796
265.726	0.069538
269.101	1.08955
272.475	0.050526
275.85	0.579681
279.225	1.87435
282.6	0.209513
285.975	1.16747
289.349	0.778746
292.724	0.60129
296.099	0.588751
299.474	1.27924
302.849	0.351197
306.224	1.07767
309.598	0.83777
312.973	1.14904
316.348	1.05852
319.723	0.614432
323.098	2.0038
326.472	1.30014
329.847	2.96802
333.222	3.15606
336.597	3.32759
339.972	3.68839
343.346	3.23719
346.721	2.32443
350.096	3.32816
353.471	1.90371
356.846	2.1102
360.221	1.64327
363.595	0.306087
366.97	1.12992
370.345	0.356457
373.72	0.084926
377.095	0.678939
380.469	0.703497
383.844	0.115199
387.219	1.18759
390.594	0.362327
393.969	0.410136
397.344	0.515586
400.718	0.979277
404.093	0.937009
407.468	0.149059
410.843	0.023284
414.217	0.189191
417.592	0.75102
420.967	0.383774
424.342	0.933346
427.717	0.538578
431.092	0.586567
434.466	1.20823
437.841	1.11799
441.216	1.60844
444.591	2.91255
447.966	4.04262
451.341	3.78345
454.715	5.88117
458.09	7.96198
461.465	8.26504
464.84	7.50537
468.215	5.04874
471.589	4.76837
474.964	3.83526
478.339	2.9754
481.714	3.25594
485.089	2.1062
488.463	0.886559
491.838	0.773511
495.213	0.38952
498.588	0.210359
501.963	0.308259
505.337	0.038407
508.712	0.176311
512.087	0.341287
515.462	0.024212
518.837	0.491049
522.212	0.452504
525.586	0.962638
528.961	0.937773
532.336	0.383901
535.711	3.229
539.086	3.32279
542.46	3.14188
545.835	4.28235
549.21	4.02181
552.585	2.78285
555.96	2.45023
559.335	2.02637
562.709	1.09657
566.084	1.05629
569.459	0.921789
572.834	0.680387
576.209	0.804028
579.583	0.53471
582.958	0.136451
586.333	0.839172
589.708	1.36009
593.083	2.34762
596.457	1.99692
599.832	3.54114
603.207	4.26912
606.582	6.0834
609.957	6.15756
613.332	8.35174
616.706	9.45711
620.081	10.2226
623.456	10.1869
626.831	9.47751
630.206	7.6507
633.58	6.30924
636.955	5.17131
640.33	4.1844
643.705	3.25026
647.08	2.02136
650.455	1.2987
653.829	1.56819
657.204	0.512777
660.579	0.134231
663.954	0.329335
667.329	0.587463
670.703	0.158479
674.078	0.998663
677.453	0.861719
680.828	0.424947
684.203	0.24157
687.577	0.833841
690.952	0.958139
694.327	0.797932
697.702	0.681968
701.077	2.00225
704.452	0.144541
707.826	0.905855
711.201	0.548788
714.576	0.805321
717.951	1.30628
721.326	0.770928
724.7	1.56956
728.075	1.30356
731.45	0.411516
734.825	1.13418
738.2	0.544569
741.574	0.359243
744.949	0.033578
748.324	0.303205
751.699	0.088284
755.074	0.905285
758.449	0.431819
761.823	0.950584
765.198	0.260332
768.573	0.664875
771.948	0.505829
775.323	0.991811
778.697	1.5671
782.072	1.02922
785.447	1.6074
788.822	1.73488
792.197	1.7188
795.572	2.13396
798.946	2.7708
802.321	2.83633
805.696	3.09108
809.071	2.22315
812.446	0.946781
815.82	0.483484
819.195	1.15193
822.57	1.00157
825.945	1.00061
829.32	0.3675
832.694	1.86541
836.069	3.34996
839.444	4.36435
842.819	5.47232
846.194	8.27648
849.569	10.6111
852.943	12.7823
856.318	12.4189
859.693	10.5726
863.068	9.30466
866.443	6.63689
869.817	6.44687
873.192	4.33943
876.567	4.1247
879.942	3.43754
883.317	1.74256
886.692	2.84267
890.066	0.94331
893.441	1.16288
896.816	0.068937
900.191	0.379621
903.566	0.094057
906.94	0.235017
910.315	0.713122
913.69	0.498228
917.065	1.14061
920.44	2.08338
923.814	3.0478
927.189	3.03277
930.564	3.54974
933.939	4.01726
937.314	3.94593
940.689	4.13354
944.063	2.69669
947.438	1.83393
950.813	1.82574
954.188	0.958406
957.563	0.81266
960.937	0.478848
964.312	0.790926
967.687	0.01481
971.062	0.150551
974.437	0.295942
977.812	0.290753
981.186	0.281719
984.561	0.026189
987.936	1.08898
991.311	0.738763
994.686	0.733406
998.06	0.341976
1001.43	1.00317
1004.81	0.858571
1008.18	0.501474
1011.56	1.17661
1014.93	1.00405
1018.31	1.04832
1021.68	1.31848
1025.06	1.26856
1028.43	1.24905
1031.81	0.680516
1035.18	1.25684
1038.56	1.49224
1041.93	2.42951
1045.31	1.96527
1048.68	0.25386
1052.06	0.895348
1055.43	1.13772
1058.81	0.875439
1062.18	1.03033
1065.56	1.27431
1068.93	1.30325
1072.31	1.04336
1075.68	0.448205
1079.06	0.082031
1082.43	0.914278
1085.81	0.372045
1089.18	0.814258
1092.56	0.871483
1095.93	0.961233
1099.31	0.730226
1102.68	1.02445
1106.05	1.07028
1109.43	0.693357
1112.8	0.482759
1116.18	0.279135
1119.55	0.805736
1122.93	0.962727
1126.3	0.280361
1129.68	0.842152
1133.05	1.22113
1136.43	0.148324
1139.8	0.928061
1143.18	1.08374
1146.55	0.248793
1149.93	0.734268
1153.3	0.702486
1156.68	1.21783
1160.05	0.974746
1163.43	1.35974
1166.8	0.876919
1170.18	0.454665
1173.55	0.328887
1176.93	0.652207
1180.3	0.109527
1183.67	1.13504
1187.05	0.013001
1190.42	0.999311
1193.8	0.00766
1197.17	0.530598
1200.55	1.31552
1203.92	0.15415
1207.3	0.688402
1210.67	0.655821
1214.05	0.676597
1217.42	0.67526
1220.8	0.811738
1224.17	0.994087
1227.55	0.312747
1230.92	0.947764
1234.3	0.173168
1237.67	0.097276
1241.05	0.621578
1244.42	1.1614
1247.8	0.466304
1251.17	0.849748
1254.55	0.591452
1257.92	0.643521
1261.3	0.955134
1264.67	0.678671
1268.05	0.223677
1271.42	1.10338
1274.8	0.985893
1278.17	0.648298
1281.55	0.459883
