Measurement: Raman, 532 nm, unoriented, Raman Data Processed
Mineral: Riebeckite
Rruff sample: R120033
Ideal chemistry: [box]Na_2_(Fe^2+^_3_Fe^3+^_2_)Si_8_O_22_(OH)_2_
Locality: Zagi Mountain, Hameed Abad Kafoor Dheri, Peshawar, Khyber Pakhtunkhwa, Pakistan
Source: Donald Doell
Description: Black prismatic crystals associated with titanite, R120030
Raman shift (cm-1)	intensity
194.629	0
197.522	3.68907
200.415	6.53027
203.308	6.74031
206.2	7.07199
209.093	16.817
211.986	27.1987
214.878	28.6541
217.771	22.0456
220.664	17.0998
223.556	14.5912
226.449	10.8925
229.342	12.3633
232.234	13.0135
235.127	12.3263
238.02	12.7145
240.913	12.7013
243.805	11.0803
246.698	8.53391
249.591	5.58864
252.483	5.71605
255.376	1.63896
258.269	1.53143
261.161	0.096756
264.054	0.758133
266.947	2.31338
269.84	3.39645
272.732	5.43216
275.625	1.32832
278.518	0.541763
281.41	0.457291
284.303	1.09531
287.196	1.08122
290.089	0.691391
292.981	0.077271
295.874	1.95813
298.767	1.13863
301.659	1.60629
304.552	2.10619
307.445	1.31297
310.337	0.680511
313.23	3.20962
316.123	2.91
319.015	4.90263
321.908	5.87123
324.801	6.27885
327.694	6.83962
330.586	7.81848
333.479	3.94981
336.372	3.95634
339.264	3.21173
342.157	3.2309
345.05	3.42793
347.942	4.92169
350.835	8.76825
353.728	15.0788
356.621	20.6715
359.513	24.6142
362.406	24.6768
365.299	24.8173
368.191	22.5314
371.084	20.7599
373.977	17.4623
376.87	11.4758
379.762	9.3345
382.655	5.35442
385.548	4.54352
388.44	4.48209
391.333	2.75612
394.226	1.74277
397.118	0.992706
400.011	0.048462
402.904	0.520416
405.796	1.22684
408.689	2.20157
411.582	1.54646
414.475	2.33322
417.367	4.48959
420.26	5.37148
423.153	6.96742
426.045	10.7517
428.938	12.2248
431.831	11.4377
434.724	9.92532
437.616	5.90872
440.509	3.59438
443.402	3.27853
446.294	2.29846
449.187	0.98468
452.08	1.16386
454.972	1.64121
457.865	2.08536
460.758	3.31845
463.651	2.1405
466.543	2.5171
469.436	2.11227
472.329	2.83055
475.221	1.20293
478.114	0.483246
481.007	0.668091
483.899	2.35968
486.792	0.554077
489.685	1.24135
492.577	1.32431
495.47	1.33325
498.363	2.04314
501.256	3.64047
504.148	2.65782
507.041	4.26291
509.934	3.93686
512.826	3.33263
515.719	5.06557
518.612	4.99579
521.505	7.39177
524.397	11.5824
527.29	16.9935
530.183	19.978
533.075	23.7531
535.968	28.095
538.861	29.1283
541.753	28.7836
544.646	22.7827
547.539	17.9744
550.432	15.4716
553.324	13.5651
556.217	11.9479
559.11	11.8819
562.002	13.4451
564.895	13.9342
567.788	14.6207
570.68	16.0941
573.573	18.0911
576.466	21.3044
579.359	19.2089
582.251	13.8213
585.144	11.8232
588.037	6.70039
590.929	5.34764
593.822	3.52298
596.715	3.20429
599.607	2.25467
602.5	1.3284
605.393	0.533203
608.285	1.85948
611.178	0.289001
614.071	1.14728
616.964	0.712631
619.856	2.10521
622.749	0.463547
625.642	1.83856
628.534	1.18515
631.427	0.807129
634.32	2.17625
637.212	2.59317
640.105	3.53566
642.998	3.73738
645.891	9.62656
648.783	9.01758
651.676	12.8488
654.569	19.6015
657.461	22.5955
660.354	27.1545
663.247	27.9996
666.139	29.0223
669.032	24.3063
671.925	18.6102
674.818	13.6707
677.71	9.07365
680.603	6.429
683.496	6.18687
686.388	3.93359
689.281	1.9834
692.174	2.45454
695.067	2.35069
697.959	0.853226
700.852	0.869507
703.745	0.432343
706.637	0.181534
709.53	1.23393
712.423	1.94785
715.315	2.20932
718.208	0.087387
721.101	0.231659
723.994	1.54837
726.886	0.887146
729.779	3.84476
732.672	0.134552
735.564	0.00293
738.457	0.199158
741.35	1.51443
744.242	1.14795
747.135	0.073914
750.028	1.27801
752.92	4.12952
755.813	3.13602
758.706	6.40326
761.599	4.86911
764.491	3.27225
767.384	1.67929
770.277	0.003693
773.169	0.528992
776.062	1.62012
778.955	2.18982
781.847	0.982056
784.74	2.7421
787.633	1.61548
790.526	2.19049
793.418	0.870911
796.311	1.82257
799.204	0.535156
802.096	2.45984
804.989	0.56015
807.882	2.38837
810.774	1.6044
813.667	1.6817
816.56	2.29712
819.453	3.87235
822.345	4.21841
825.238	2.94659
828.131	6.28445
831.023	0.904938
833.916	3.69305
836.809	2.73495
839.702	5.15616
842.594	5.55508
845.487	4.46256
848.38	4.65677
851.272	4.466
854.165	4.85928
857.058	6.62067
859.95	5.69263
862.843	5.48114
865.736	5.69849
868.629	4.53003
871.521	6.19568
874.414	8.05396
877.307	6.11777
880.199	7.81845
883.092	3.88083
885.985	7.11014
888.877	7.62042
891.77	7.26373
894.663	5.95242
897.556	4.68082
900.448	3.129
903.341	2.00055
906.234	1.72388
909.126	2.01038
912.019	0.636841
914.912	2.28235
917.804	1.5003
920.697	2.58224
923.59	0.300629
926.482	0.272827
929.375	0.021027
932.268	2.07416
935.161	0.929749
938.053	3.3858
940.946	2.79913
943.839	2.44739
946.731	5.00992
949.624	7.11587
952.517	14.5026
955.409	18.3406
958.302	25.9466
961.195	34.4014
964.088	44.7136
966.98	57.1464
969.873	62.055
972.766	57.1929
975.658	44.7674
978.551	35.8436
981.444	33.1882
984.337	23.6767
987.229	21.8656
990.122	16.2859
993.015	11.2199
995.907	8.02624
998.8	3.60031
1001.69	4.70007
1004.59	2.28012
1007.48	0.226868
1010.37	0.414093
1013.26	0.694122
1016.16	0.239838
1019.05	0.739349
1021.94	2.42007
1024.83	1.07834
1027.73	1.1799
1030.62	1.92398
1033.51	2.8606
1036.4	3.25092
1039.3	3.20755
1042.19	2.78101
1045.08	2.74661
1047.98	1.76407
1050.87	4.30731
1053.76	3.47427
1056.65	3.42175
1059.55	2.65878
1062.44	4.56381
1065.33	3.2583
1068.22	3.55304
1071.12	3.89185
1074.01	7.82156
1076.9	4.3302
1079.8	9.18314
1082.69	6.47443
1085.58	6.57077
1088.47	5.53827
1091.37	4.18033
1094.26	2.89938
1097.15	4.20584
1100.04	2.97217
1102.94	1.33502
1105.83	2.12561
1108.72	0.049164
1111.62	3.40588
1114.51	3.71716
1117.4	2.69138
1120.29	0.163666
1123.19	2.04144
1126.08	2.88654
1128.97	1.04044
1131.86	3.60306
1134.76	2.58545
1137.65	1.17462
1140.54	1.38641
1143.43	1.41888
1146.33	3.76999
1149.22	0.874756
1152.11	2.19153
1155.01	1.98312
1157.9	0.200134
1160.79	0.573639
1163.68	2.43469
1166.58	1.8848
1169.47	2.45767
1172.36	0.23465
1175.26	0.018158
1178.15	1.11365
1181.04	2.85031
1183.93	3.84445
1186.83	3.59265
1189.72	0.932129
1192.61	2.54187
1195.5	1.98898
1198.4	2.82019
1201.29	3.56839
1204.18	2.1561
1207.07	5.96268
1209.97	4.29111
1212.86	2.94589
1215.75	3.30991
1218.64	1.48041
1221.54	0.173431
1224.43	3.09058
1227.32	3.49603
1230.22	1.52713
1233.11	1.65765
1236	1.09009
1238.89	0.227356
1241.79	0.249542
1244.68	2.50851
1247.57	0.725739
1250.46	2.55045
1253.36	2.82349
1256.25	2.1275
1259.14	4.15939
1262.04	2.12079
1264.93	1.93308
1267.82	2.66403
1270.71	2.79758
1273.61	1.14301
1276.5	2.68402
1279.39	0.793579
1282.29	1.96619
1285.18	2.67306
1288.07	3.43097
1290.96	2.19351
1293.86	1.63498
1296.75	1.48755
1299.64	3.44812
1302.53	0.53183
