Measurement: Raman, 785 nm, unoriented, Raman Data Processed
Mineral: Ringwoodite
Rruff sample: R070079
Ideal chemistry: Mg_2_SiO_4_
Locality: Tenham meteorite, south Gregory, Queensland, Australia
Source: Michael Scott
Description: Colorless grains associated with kamacite, majorite and troilite, in a polished section embedded in epoxy
Measured chemistry: (Mg_1.50_Fe_0.49_Mn_0.01_)_Î£=2_Si_1.00_O_4_
Raman shift (cm-1)	intensity
168.075	0
170.968	191.322
173.861	434.301
176.753	531.128
179.646	511.788
182.539	463.177
185.431	402.711
188.324	555.517
191.217	836.187
194.11	1172.17
197.002	1561.53
199.895	1931.2
202.788	2225.66
205.68	2413.99
208.573	2561.8
211.466	2644.69
214.358	2850.77
217.251	2986.21
220.144	3098.98
223.037	3210.53
225.929	3350.69
228.822	3336.15
231.715	3265.45
234.607	3251.88
237.5	3096.99
240.393	3189.16
243.286	3022.49
246.178	2818.86
249.071	2503.65
251.964	2093.26
254.856	1842.02
257.749	1594.61
260.642	1295.68
263.534	1159.93
266.427	1120.65
269.32	823.824
272.212	658.312
275.105	393.282
277.998	303.614
280.891	239.608
283.783	182.221
286.676	199.971
289.569	83.4736
292.461	58.3984
295.354	154.031
298.247	148.968
301.139	27.6455
304.032	142.04
306.925	224.523
309.818	151.267
312.71	18.1104
315.603	25.5283
318.496	105.63
321.388	145.305
324.281	137.079
327.174	312.581
330.067	497.869
332.959	578.561
335.852	442.38
338.745	561.759
341.637	459.573
344.53	467.996
347.423	491.593
350.315	583.314
353.208	535.308
356.101	596.831
358.993	576.284
361.886	506.952
364.779	431.233
367.672	329.934
370.564	324.925
373.457	511.075
376.35	391.641
379.242	434.905
382.135	413.231
385.028	433.348
387.921	444.805
390.813	347.614
393.706	428.627
396.599	380.745
399.491	447.81
402.384	442.499
405.277	340.328
408.169	282.394
411.062	172.92
413.955	154.023
416.848	216.781
419.74	193.254
422.633	111.09
425.526	117.308
428.418	27.0693
431.311	27.9453
434.204	71.2227
437.096	32.0078
439.989	27.1846
442.882	94.459
445.774	108.236
448.667	60.6191
451.56	12.2676
454.453	53.2861
457.345	39.0508
460.238	66.8564
463.131	145.812
466.023	98.9316
468.916	187.32
471.809	187.261
474.702	231.295
477.594	283.477
480.487	265.505
483.38	139.007
486.272	290.228
489.165	258.171
492.058	308.035
494.95	367.487
497.843	347.581
500.736	275.337
503.628	293.983
506.521	224.451
509.414	268.967
512.307	266.687
515.199	235.156
518.092	140.076
520.985	60.5352
523.877	58.4746
526.77	28.7725
529.663	16.8271
532.556	13.2881
535.448	9.4043
538.341	151.011
541.234	68.9648
544.126	93.5029
547.019	127.517
549.912	195.536
552.804	134.013
555.697	279.072
558.59	290.879
561.482	322.612
564.375	404.452
567.268	461.885
570.161	458.85
573.053	361.732
575.946	512.748
578.839	444.129
581.731	560.966
584.624	513.836
587.517	486.443
590.409	481.667
593.302	414.997
596.195	429.677
599.088	380.259
601.98	415.347
604.873	369.887
607.766	254.226
610.658	201.588
613.551	136.136
616.444	105.975
619.337	7.89746
622.229	34.8555
625.122	117.663
628.015	31.2061
630.907	131.852
633.8	132.942
636.693	301.442
639.585	551.802
642.478	362.614
645.371	146.111
648.264	90.0107
651.156	135.107
654.049	61.9863
656.942	31.6104
659.834	95.5303
662.727	206.182
665.62	147.533
668.513	101.107
671.405	134.565
674.298	233.564
677.191	183.689
680.083	128.879
682.976	158.642
685.869	263.692
688.761	89.4522
691.654	13.2812
694.547	70.1221
697.439	74.7998
700.332	83.6426
703.225	58.2559
706.118	84.6201
709.01	87.459
711.903	39.9688
714.796	18.3301
717.688	25.7764
720.581	7.95606
723.474	59.5352
726.366	18.6729
729.259	18.7559
732.152	0.751953
735.045	41.9443
737.937	59.2891
740.83	41.6172
743.723	20.5508
746.615	35.7773
749.508	35.4893
752.401	51.627
755.293	109.953
758.186	176.589
761.079	182.662
763.972	135.049
766.864	218.751
769.757	329.86
772.65	312.534
775.542	396.982
778.435	514.102
781.328	716.293
784.221	776.723
787.113	1132.89
790.006	1277.62
792.899	1513.02
795.791	1601.93
798.684	1727.54
801.577	1467.2
804.469	1372.09
807.362	1276.92
810.255	1162.34
813.148	1073.31
816.04	976.227
818.933	1029.53
821.826	1013.37
824.718	932.47
827.611	1181.48
830.504	1161.09
833.396	1356.82
836.289	1643.25
839.182	1778.26
842.074	1974.1
844.967	1876.02
847.86	1527.8
850.753	1072.17
853.645	748.475
856.538	521.068
859.431	428.658
862.323	289.904
865.216	264.071
868.109	257.726
871.001	198.053
873.894	181.492
876.787	215.894
879.68	210.349
882.572	194.191
885.465	266.16
888.358	21.1504
891.25	20.54
894.143	25.5654
897.036	24.4902
899.928	1.97266
902.821	19.5869
905.714	51.1465
908.607	7.64746
911.499	26.4062
914.392	214.333
917.285	202.32
920.177	107.341
923.07	200.287
925.963	172.481
928.856	90.6299
931.748	258.159
934.641	261.2
937.534	232.082
940.426	149.93
943.319	191.42
946.212	199.231
949.104	148.786
951.997	53.9922
954.89	152.654
957.783	115.398
960.675	135.913
963.568	157.629
966.461	88.8769
969.353	185.557
972.246	66.3057
975.139	35.7363
978.031	61.3721
980.924	114.718
983.817	12.8262
986.71	153.951
989.602	32.502
992.495	24.3574
995.388	14.1055
998.28	10.1279
1001.17	8.61621
1004.07	115.405
1006.96	58.9971
1009.85	74.3037
1012.74	57.0293
1015.64	49.3506
1018.53	4.4082
1021.42	100.059
1024.32	122.31
1027.21	97.1631
1030.1	74.8857
1032.99	105
1035.88	180.61
1038.78	174.878
1041.67	189.869
1044.56	181.318
1047.46	121.724
1050.35	109.815
1053.24	29.3096
1056.13	37.2139
1059.03	18.2949
1061.92	25.873
1064.81	115.99
1067.7	108.4
1070.6	45.0352
1073.49	9.46191
1076.38	53.1592
1079.28	127.314
1082.17	110.908
1085.06	39.04
1087.95	161.207
1090.85	156.27
1093.74	44.874
1096.63	174.893
1099.53	244.825
1102.42	260.303
1105.31	398.228
1108.2	491.685
1111.1	719.966
1113.99	748.235
1116.88	612.519
1119.77	327.84
1122.67	253.276
1125.56	123.878
1128.45	118.568
1131.34	32.9815
1134.24	65.8438
1137.13	126.658
1140.02	5.97461
1142.91	32.8076
1145.81	130.046
1148.7	23.6963
1151.59	78.4258
1154.49	91.9023
1157.38	70.334
1160.27	1.94434
1163.16	3.8584
1166.06	135.075
1168.95	50.6777
1171.84	80.624
1174.73	84.9717
1177.63	261.615
1180.52	332.828
1183.41	408.312
1186.31	368.917
1189.2	343.44
1192.09	206.184
1194.98	96.9766
1197.88	33.3193
1200.77	28.0889
1203.66	3.80469
1206.56	25.29
1209.45	92.1894
1212.34	63.8984
1215.23	149.805
1218.12	300.134
1221.02	294.17
1223.91	321.028
1226.8	210.239
1229.7	234.468
1232.59	295.101
1235.48	140.031
1238.37	87.626
1241.27	53.2861
1244.16	12.125
