Measurement: Raman, 532 nm, unoriented, Raman Data Processed
Mineral: Rinkite-(Ce)
Rruff sample: R050229
Ideal chemistry: (Ca_3_Ce^3+^)Na(NaCa)Ti^4+^(Si_2_O_7_)_2_(OF)F_2_
Locality: Kipawa alkaline complex, near Sheffield Lake, Villedieu Township, Temiscamingue County, Quebec, Canada
Source: Marcus Origlieri
Description: Aggregate of coarsely crystalline yellowish-gray crystals associated with red eudialyte R050230
Raman shift (cm-1)	intensity
150.154	0
153.046	3.67078
155.939	10.2155
158.832	4.94385
161.725	8.59644
164.617	9.59326
167.51	22.5352
170.403	17.6581
173.295	20.9352
176.188	23.2939
179.081	32.986
181.973	31.9315
184.866	23.8036
187.759	24.5894
190.651	10.6123
193.544	11.4381
196.437	6.75989
199.33	3.22681
202.222	8.36487
205.115	1.38391
208.008	0.601563
210.9	0.930176
213.793	1.94421
216.686	2.47937
219.578	4.0658
222.471	4.85022
225.364	6.1167
228.257	18.6066
231.149	19.1118
234.042	23.4875
236.935	27.5485
239.827	30.8186
242.72	29.8932
245.613	34.6086
248.506	39.416
251.398	39.0207
254.291	48.2242
257.184	52.8219
260.076	45.6545
262.969	44.1011
265.862	49.0398
268.754	43.3372
271.647	45.1169
274.54	40.7822
277.433	43.9055
280.325	35.344
283.218	34.4606
286.111	24.3668
289.003	23.1343
291.896	14.3887
294.789	13.9949
297.681	8.79639
300.574	11.1636
303.467	5.87012
306.36	8.30396
309.252	10.9473
312.145	11.177
315.038	12.8506
317.93	22.0803
320.823	18.1543
323.716	18.0005
326.608	17.7615
329.501	21.3832
332.394	21.4834
335.286	13.7524
338.179	20.0773
341.072	24.2075
343.965	21.9829
346.857	23.2018
349.75	20.9109
352.643	19.6057
355.535	23.7007
358.428	32.5747
361.321	39.2329
364.214	51.7293
367.106	53.8298
369.999	64.2582
372.892	74.5297
375.784	69.2964
378.677	72.1184
381.57	77.866
384.462	66.2203
387.355	60.9845
390.248	51.4454
393.14	46.5056
396.033	36.28
398.926	26.1401
401.819	22.9628
404.711	10.2719
407.604	2.5564
410.497	0.473267
413.389	1.17334
416.282	1.53943
419.175	2.41809
422.067	4.06494
424.96	6.14282
427.853	1.2019
430.746	1.67505
433.638	2.724
436.531	10.49
439.424	2.75012
442.316	4.82715
445.209	9.03796
448.102	0.151001
450.994	4.91455
453.887	10.9287
456.78	16.0646
459.673	18.7028
462.565	16.3502
465.458	20.6814
468.351	23.429
471.243	22.6797
474.136	22.7966
477.029	27.3949
479.921	21.6508
482.814	16.4963
485.707	8.76172
488.599	6.95764
491.492	10.411
494.385	9.03552
497.278	0.299438
500.17	1.37305
503.063	4.25146
505.956	9.57141
508.848	3.68982
511.741	1.44519
514.634	9.02747
517.527	14.728
520.419	13.9034
523.312	24.2185
526.205	24.8377
529.097	14.4259
531.99	15.5088
534.883	19.8699
537.775	12.0947
540.668	16.6191
543.561	13.988
546.454	9.85156
549.346	5.94946
552.239	13.7692
555.132	0.542236
558.024	2.6731
560.917	13.3009
563.81	17.7325
566.702	22.4929
569.595	26.6696
572.488	33.9145
575.381	39.5814
578.273	48.2742
581.166	53.3241
584.059	68.3441
586.951	63.4768
589.844	70.1773
592.737	61.397
595.629	54.1643
598.522	41.5638
601.415	37.7364
604.308	26.0498
607.2	17.2129
610.093	7.43396
612.986	0.564575
615.878	0.901001
618.771	0.658569
621.664	2.3938
624.556	1.03967
627.449	1.59583
630.342	2.42188
633.235	13.6622
636.127	27.6121
639.02	41.3369
641.913	56.4149
644.805	74.4248
647.698	100.919
650.591	113.68
653.483	129.244
656.376	139.04
659.269	138.804
662.162	151.938
665.054	155.731
667.947	147.025
670.84	130.361
673.732	113.675
676.625	92.055
679.518	66.1295
682.41	46.8669
685.303	34.1925
688.196	17.6232
691.088	8.59485
693.981	6.86585
696.874	8.31445
699.767	0.398315
702.659	1.3761
705.552	1.35034
708.445	0.561646
711.337	1.88061
714.23	1.01245
717.123	3.18127
720.015	0.323486
722.908	2.77722
725.801	1.7749
728.694	4.53259
731.586	5.2229
734.479	4.39807
737.372	9.59876
740.264	9.97156
743.157	18.6493
746.05	24.3634
748.942	24.0455
751.835	21.5375
754.728	29.8008
757.621	32.0206
760.513	32.7806
763.406	37.0727
766.299	38.614
769.191	39.4294
772.084	43.6301
774.977	43.4563
777.87	43.0961
780.762	47.6859
783.655	47.2606
786.548	52.588
789.44	52.1101
792.333	45.5349
795.226	53.9261
798.118	56.5653
801.011	56.0342
803.904	57.568
806.796	58.3337
809.689	58.1702
812.582	66.4065
815.475	67.4891
818.367	70.864
821.26	76.4974
824.153	78.4264
827.045	78.5795
829.938	80.8433
832.831	82.001
835.723	89.3173
838.616	85.9048
841.509	87.1371
844.402	89.4924
847.294	86.8312
850.187	82.1279
853.08	75.0866
855.972	67.3363
858.865	61.6918
861.758	49.8671
864.65	38.3237
867.543	21.3145
870.436	13.4354
873.329	17.1243
876.221	6.09814
879.114	1.37659
882.007	5.66687
884.899	3.6167
887.792	8.5686
890.685	4.49426
893.577	5.77856
896.47	9.73352
899.363	15.3131
902.256	17.2443
905.148	28.3772
908.041	36.8358
910.934	43.682
913.826	48.8473
916.719	52.2508
919.612	64.4175
922.505	70.641
925.397	76.97
928.29	85.328
931.183	86.974
934.075	91.723
936.968	101.093
939.861	98.34
942.753	104.897
945.646	100.545
948.539	98.7089
951.432	93.3117
954.324	89.6263
957.217	78.4221
960.11	81.9915
963.002	73.8247
965.895	62.1047
968.788	53.7987
971.68	40.027
974.573	33.4482
977.466	28.8099
980.359	25.1811
983.251	21.4087
986.144	16.4596
989.037	11.0252
991.929	4.64087
994.822	4.87585
997.715	1.48059
1000.61	4.20068
1003.5	0.441772
1006.39	5.35254
1009.28	2.177
1012.18	1.02551
1015.07	2.51611
1017.96	2.198
1020.86	6.00854
1023.75	5.24719
1026.64	8.86743
1029.53	11.6981
1032.43	20.5437
1035.32	20.057
1038.21	35.4685
1041.11	43.0933
1044	44.8554
1046.89	52.3652
1049.78	62.873
1052.68	70.7998
1055.57	72.5164
1058.46	81.0894
1061.35	88.5487
1064.25	90.6619
1067.14	98.5421
1070.03	96.1296
1072.92	107.005
1075.82	103.428
1078.71	109.141
1081.6	103.454
1084.5	98.4475
1087.39	100.022
1090.28	96.0145
1093.17	88.6249
1096.07	85.5219
1098.96	84.5005
1101.85	85.8677
1104.74	82.0002
1107.64	73.0239
1110.53	73.8158
1113.42	67.0712
1116.32	73.1936
1119.21	70.3401
1122.1	68.5665
1124.99	62.8256
1127.89	58.9133
1130.78	55.7241
1133.67	49.544
1136.56	43.8095
1139.46	40.918
1142.35	32.3059
1145.24	26.1916
1148.13	21.3704
1151.03	18.4496
1153.92	13.9722
1156.81	9.39612
1159.71	7.59882
1162.6	0.316772
1165.49	6.32629
1168.38	0.862793
1171.28	3.92175
1174.17	1.07629
1177.06	1.82764
1179.95	3.82117
1182.85	5.25897
1185.74	3.17291
1188.63	2.55255
1191.53	2.82715
1194.42	3.24841
1197.31	5.35315
1200.2	7.35156
1203.1	8.74115
1205.99	11.7784
1208.88	12.873
1211.77	15.9835
1214.67	17.8945
1217.56	19.774
1220.45	22.5941
1223.35	22.7191
1226.24	26.3486
1229.13	24.9206
1232.02	26.8752
1234.92	22.2343
1237.81	16.6309
1240.7	15.6788
1243.59	17.7118
1246.49	19.225
1249.38	23.1642
1252.27	21.6847
1255.16	21.3208
1258.06	14.1439
1260.95	16.6015
1263.84	13.1562
1266.74	11.6791
1269.63	11.0038
1272.52	11.1243
1275.41	8.24023
1278.31	11.1707
1281.2	7.14832
1284.09	5.1496
1286.98	0.678711
1289.88	0.194092
