Measurement: Raman, 785 nm, unoriented, Raman Data Processed
Mineral: Rinneite
Rruff sample: R060649
Ideal chemistry: K_3_NaFe^2+^Cl_6_
Locality: Salton Sea, Imperial County, California, USA
Source: Michael Scott
Raman shift (cm-1)	intensity
195.774	0
198.667	205.211
201.559	286.896
204.452	324.039
207.345	195.4
210.238	31.916
213.13	151.58
216.023	217.646
218.916	390.357
221.808	272.578
224.701	666.418
227.594	297.887
230.486	507.643
233.379	402.17
236.272	402.242
239.165	359.66
242.057	344.047
244.95	262.895
247.843	88.891
250.735	182.645
253.628	24.164
256.521	32.309
259.413	101.43
262.306	162.334
265.199	146.414
268.091	197.045
270.984	122.211
273.877	4.662
276.77	58.266
279.662	363.295
282.555	673.135
285.448	472.947
288.34	628.885
291.233	215.355
294.126	240.457
297.018	70.416
299.911	177.844
302.804	362.945
305.697	522.125
308.589	645.684
311.482	630.07
314.375	282.451
317.267	153.988
320.16	159.936
323.053	292.113
325.945	384.76
328.838	489.631
331.731	585.459
334.624	434.426
337.516	234.617
340.409	13.791
343.302	46.422
346.194	213.047
349.087	131.971
351.98	339.107
354.872	305.027
357.765	300.256
360.658	79.355
363.551	103.504
366.443	3.074
369.336	180.43
372.229	234.473
375.121	444.68
378.014	402.447
380.907	281.609
383.799	100.205
386.692	174.441
389.585	34.531
392.478	333.475
395.37	576.705
398.263	537.482
401.156	498.676
404.048	328.139
406.941	396.557
409.834	329.723
412.727	418.594
415.619	432.189
418.512	420.668
421.405	525.572
424.297	392.189
427.19	456.297
430.083	293.217
432.975	228.199
435.868	137.389
438.761	184.123
441.654	99.814
444.546	451.213
447.439	365.729
450.332	248.551
453.224	114.055
456.117	147.238
459.01	126.477
461.902	290.23
464.795	401.695
467.688	314.656
470.58	104.863
473.473	209.865
476.366	50.244
479.259	17.432
482.151	64.305
485.044	198.613
487.937	99.84
490.829	293
493.722	328.336
496.615	338.9
499.507	219.027
502.4	108.754
505.293	186.836
508.185	94.531
511.078	190.908
513.971	225.727
516.864	435.354
519.756	670.693
522.649	715.816
525.542	589.906
528.434	481.359
531.327	251.549
534.22	131.719
537.112	278.512
540.005	394.889
542.898	292.35
545.791	538.809
548.683	254.801
551.576	80.172
554.469	261.746
557.362	290.311
560.254	243.602
563.147	294.959
566.04	245.838
568.932	15.512
571.825	35.111
574.718	117.971
577.61	121.498
580.503	180.475
583.396	176.389
586.289	220.738
589.181	147.771
592.074	45.188
594.967	85.506
597.859	3.836
600.752	3.822
603.645	47.049
606.537	10.666
609.43	55.26
612.323	111.496
615.216	289.131
618.108	316.66
621.001	298.324
623.894	235.236
626.786	84.574
629.679	163.682
632.572	87.857
635.464	232.557
638.357	359.371
641.25	281.119
644.143	416.938
647.035	388.102
649.928	326.082
652.821	119.082
655.713	162.125
658.606	152.764
661.499	78.17
664.391	75.059
667.284	28.186
670.177	42.061
673.07	54.467
675.962	192.092
678.855	213.883
681.748	120.998
684.64	22.535
687.533	140.904
690.426	228.871
693.318	99.592
696.211	228.502
699.104	387.877
701.997	325.676
704.889	228.416
707.782	428.602
710.675	326.293
713.567	285.805
716.46	353.582
719.353	304.383
722.245	419.396
725.138	359.195
728.031	366.928
730.924	157.512
733.816	192.689
736.709	71.754
739.602	185.875
742.494	206.998
745.387	201.941
748.28	191.879
751.172	175.301
754.065	192.49
756.958	176.277
759.851	61.904
762.743	48.955
765.636	91.514
768.529	5.004
771.421	132.336
774.314	9.287
777.207	130.953
780.099	64.766
782.992	98.512
785.885	164.348
788.778	309.291
791.67	259.143
794.563	180.719
797.456	333.471
800.348	202.818
803.241	527.205
806.134	552.195
809.026	468.625
811.919	451.531
814.812	319.543
817.705	338.898
820.597	362.443
823.49	400.506
826.383	411.729
829.275	409.305
832.168	309.848
835.061	462.818
837.953	465.064
840.846	441.17
843.739	472.592
846.631	481.75
849.524	536.406
852.417	538.078
855.31	546.855
858.202	465.283
861.095	364.66
863.988	451.109
866.88	299.629
869.773	407.354
872.666	109.133
875.558	200.635
878.451	144.004
881.344	187.098
884.237	83.5
887.129	74.221
890.022	185.152
892.915	71.107
895.807	16.156
898.7	208.711
901.593	100.248
904.485	145.309
907.378	122.488
910.271	161.93
913.164	155.818
916.056	134.084
918.949	8.762
921.842	171.875
924.734	24.635
927.627	138.023
930.52	22.135
933.412	201.547
936.305	52.506
939.198	119.18
942.091	166.49
944.983	106.652
947.876	28.43
950.769	124.588
953.661	226.43
956.554	56.215
959.447	51.105
962.339	53.629
965.232	50.877
968.125	58.75
971.018	3.605
973.91	75.295
976.803	52.391
979.696	135.635
982.588	146.672
985.481	143.43
988.374	133.121
991.266	176.818
994.159	525.047
997.052	1683.21
999.945	2976.72
1002.84	2446.53
1005.73	869.801
1008.62	312.395
1011.51	176.576
1014.41	109.57
1017.3	33.908
1020.19	41.026
1023.09	115.832
1025.98	73.813
1028.87	267.094
1031.76	251.272
1034.66	410.541
1037.55	622.042
1040.44	636.727
1043.34	591.226
1046.23	232.545
1049.12	237.426
1052.01	202.352
1054.91	57.719
1057.8	105.708
1060.69	335.398
1063.58	199.346
1066.48	213.864
1069.37	36.822
1072.26	67.89
1075.15	202.962
1078.05	33.269
1080.94	154.607
1083.83	203.042
1086.72	251.555
1089.62	216.237
1092.51	122.337
1095.4	144.494
1098.3	358.013
1101.19	87.163
1104.08	112.567
1106.97	37.849
1109.87	53.165
1112.76	20.413
1115.65	119.375
1118.55	93.903
1121.44	129.61
1124.33	291.819
1127.22	333.362
1130.12	265.135
1133.01	259.794
1135.9	63.544
1138.79	53.47
1141.69	103.366
1144.58	170.263
1147.47	76.743
1150.37	185.982
1153.26	284.124
1156.15	263.004
1159.04	404.007
1161.94	675.396
1164.83	560.461
1167.72	574.057
1170.61	385.65
1173.51	170.509
1176.4	100.016
1179.29	230.301
1182.18	267.538
1185.08	219.489
1187.97	11.466
1190.86	129.37
1193.76	246.833
1196.65	157.193
1199.54	330.943
1202.43	245.685
1205.33	192.714
1208.22	166.148
1211.11	203.152
1214	169.924
1216.9	147.335
1219.79	93.924
1222.68	35.789
1225.58	3.462
1228.47	64.202
1231.36	93.122
1234.25	128.694
1237.15	181.672
1240.04	164.951
1242.93	268.112
1245.82	269.865
1248.72	183.645
1251.61	48.079
1254.5	63.717
1257.39	25.543
1260.29	36.367
