Measurement: Raman, 532 nm, unoriented, Raman Data Processed
Mineral: Robertsite
Rruff sample: R120040
Ideal chemistry: Ca_2_Mn^3+^_3_O_2_(PO_4_)_3_3H_2_O
Locality: Tip Top mine, Custer County, South Dakota, USA
Source: Mark N. Feinglos
Description: Dark reddish brown plates on bobdownsite. This sample was used to determine the structure reported in Andrade et al (2012)
Measured chemistry: Ca_1.93_(Mn_2.92_Fe_0.07_)_Σ=2.99_O_1.84_(PO_4_)_3.04_·2.72H_2_O
Raman shift (cm-1)	intensity
237.538	0
240.43	1.1015
243.323	1.78717
246.216	4.21564
249.109	7.71167
252.001	15.4618
254.894	21.6041
257.787	28.9786
260.679	36.9211
263.572	40.9664
266.465	51.3173
269.358	56.1726
272.25	64.8391
275.143	70.7637
278.036	77.9744
280.928	86.3292
283.821	87.5102
286.714	89.3939
289.606	88.255
292.499	89.0876
295.392	87.9797
298.284	80.659
301.177	75.588
304.07	70.2668
306.963	63.0899
309.855	59.8016
312.748	53.9786
315.641	49.3308
318.533	47.7096
321.426	42.8083
324.319	38.0359
327.212	34.8274
330.104	30.1817
332.997	23.448
335.89	21.1429
338.782	12.8694
341.675	8.79282
344.568	5.02066
347.46	0.341461
350.353	0.171783
353.246	1.60318
356.139	3.82425
359.031	0.656158
361.924	0.873444
364.817	3.53616
367.709	6.11838
370.602	12.4078
373.495	15.115
376.387	15.9328
379.28	19.354
382.173	19.3302
385.065	23.8877
387.958	22.2629
390.851	20.6025
393.744	18.7992
396.636	15.1132
399.529	11.6422
402.422	12.6346
405.314	9.16257
408.207	10.5491
411.1	8.91031
413.993	9.0629
416.885	4.68921
419.778	6.65906
422.671	3.87338
425.563	6.72058
428.456	5.8988
431.349	4.18326
434.241	4.10492
437.134	2.89154
440.027	4.23392
442.92	3.37793
445.812	5.08664
448.705	4.95001
451.598	3.56635
454.49	2.51962
457.383	2.49426
460.276	1.33261
463.168	1.57706
466.061	1.72339
468.954	0.07785
471.846	3.9053
474.739	2.4003
477.632	4.83688
480.525	5.39786
483.417	7.31256
486.31	9.62915
489.203	10.6007
492.095	11.9526
494.988	13.5428
497.881	14.0424
500.774	11.8557
503.666	10.5994
506.559	7.76669
509.452	5.43289
512.344	4.65839
515.237	1.28757
518.13	0.93689
521.022	1.15088
523.915	0.6203
526.808	0.515717
529.701	3.09363
532.593	0.047607
535.486	2.17636
538.379	2.96536
541.271	5.25507
544.164	8.14084
547.057	7.69132
549.949	9.62756
552.842	8.98474
555.735	7.42319
558.628	4.03
561.52	0.829102
564.413	2.41894
567.306	1.03238
570.198	0.259705
573.091	0.541656
575.984	2.04806
578.876	4.00095
581.769	8.91153
584.662	4.9801
587.554	10.6145
590.447	13.4814
593.34	22.9797
596.232	24.1732
599.125	31.0927
602.018	36.6827
604.911	46.342
607.803	57.4172
610.696	70.7958
613.589	81.1168
616.481	89.9593
619.374	97.8548
622.267	105.237
625.159	106.182
628.052	104.749
630.945	98.1507
633.838	89.744
636.73	82.8112
639.623	68.696
642.516	58.914
645.408	46.9657
648.301	41.4262
651.194	33.2029
654.087	28.807
656.979	24.4125
659.872	20.4307
662.765	16.8746
665.657	12.4802
668.55	10.7759
671.443	7.0293
674.335	7.26611
677.228	5.06213
680.121	5.42542
683.014	4.90655
685.906	3.36517
688.799	2.59039
691.692	0.020142
694.584	1.1427
697.477	0.429077
700.37	1.95776
703.263	1.81152
706.155	0.284729
709.048	0.404541
711.941	0.887756
714.833	0.018372
717.726	1.4696
720.619	0.348206
723.511	2.19257
726.404	2.40137
729.297	3.28369
732.189	3.06293
735.082	2.06683
737.975	2.78589
740.868	2.0658
743.76	0.050293
746.653	1.17419
749.546	3.12311
752.438	2.77649
755.331	5.39136
758.224	3.58905
761.116	3.65173
764.009	3.22076
766.902	3.62415
769.795	1.58374
772.687	0.855042
775.58	1.69476
778.473	1.86694
781.365	3.02271
784.258	3.06122
787.151	2.11682
790.043	0.330261
792.936	5.34387
795.829	2.591
798.722	0.106262
801.614	2.15344
804.507	1.09717
807.4	1.552
810.292	2.36511
813.185	1.41431
816.078	5.69928
818.971	2.67773
821.863	5.14075
824.756	1.74213
827.649	3.56744
830.541	0.796448
833.434	1.40253
836.327	2.16229
839.219	0.171509
842.112	2.10736
845.005	0.615173
847.898	1.75818
850.79	0.55304
853.683	0.128357
856.576	1.27008
859.468	1.48212
862.361	1.9696
865.254	0.059143
868.146	1.50049
871.039	0.501709
873.932	1.14288
876.824	2.25946
879.717	1.1839
882.61	1.05536
885.503	2.43909
888.395	2.13068
891.288	5.87622
894.181	5.52539
897.073	3.95392
899.966	5.87561
902.859	7.36548
905.751	10.2925
908.644	10.1114
911.537	13.9865
914.43	13.5133
917.322	16.8224
920.215	18.3852
923.108	20.6556
926	21.5184
928.893	26.7871
931.786	26.3403
934.678	28.6539
937.571	31.3972
940.464	36.5739
943.357	36.6508
946.249	40.0173
949.142	38.0434
952.035	35.9894
954.927	36.4843
957.82	32.2886
960.713	31.3384
963.606	26.918
966.498	23.0929
969.391	20.5677
972.284	13.6033
975.176	14.2515
978.069	10.8987
980.962	10.8191
983.854	6.97272
986.747	4.80353
989.64	3.0282
992.533	4.19049
995.425	1.73267
998.318	0.612061
1001.21	0.028625
1004.1	0.713867
1007	1.41241
1009.89	0.992432
1012.78	1.2276
1015.67	1.49939
1018.57	2.4328
1021.46	8.10272
1024.35	7.51892
1027.24	6.46344
1030.14	9.60571
1033.03	10.6518
1035.92	12.0363
1038.82	12.2699
1041.71	7.86481
1044.6	9.36499
1047.49	7.73395
1050.39	9.4671
1053.28	9.44348
1056.17	7.16846
1059.07	4.84992
1061.96	4.01331
1064.85	2.55658
1067.74	2.80688
1070.63	1.47156
1073.53	0.318848
1076.42	2.09161
1079.31	1.70117
1082.21	0.45697
1085.1	0.416809
1087.99	0.804382
1090.88	0.075134
1093.78	0.800964
1096.67	1.48694
1099.56	5.97504
1102.45	4.44672
1105.35	5.98706
1108.24	5.62885
1111.13	6.84601
1114.03	7.80865
1116.92	8.61774
1119.81	7.9353
1122.7	8.00018
1125.6	10.8714
1128.49	9.1358
1131.38	9.42053
1134.28	13.4493
1137.17	15.4269
1140.06	22.0348
1142.95	19.7688
1145.85	19.5711
1148.74	23.9855
1151.63	29.0946
1154.52	33.3165
1157.42	36.3289
1160.31	43.9186
1163.2	48.4706
1166.09	53.7688
1168.99	61.8591
1171.88	74.4354
1174.77	87.8346
1177.66	98.8574
1180.56	107.627
1183.45	117.711
1186.34	123.481
1189.24	118.004
1192.13	105.697
1195.02	85.1215
1197.91	64.8007
1200.81	48.7389
1203.7	35.7574
1206.59	27.722
1209.48	23.9004
1212.38	18.6477
1215.27	10.1187
1218.16	8.9989
1221.06	5.81647
1223.95	3.33935
1226.84	5.15289
1229.73	1.70355
1232.63	1.15686
1235.52	0.868652
1238.41	0.770264
1241.31	0.327881
1244.2	2.27014
1247.09	0.856506
1249.98	0.838196
1252.88	2.31372
1255.77	1.44696
1258.66	3.74304
1261.55	2.52899
1264.45	2.6037
1267.34	4.20252
1270.23	4.3089
1273.12	1.50421
1276.02	4.17322
1278.91	3.87024
1281.8	0.282837
1284.69	4.04272
1287.59	6.00745
1290.48	2.06409
1293.37	0.22821
1296.27	0.523376
1299.16	1.54706
1302.05	1.03174
