Measurement: Raman, 532 nm, unoriented, Raman Data Processed
Mineral: Rockbridgeite
Rruff sample: R060858
Ideal chemistry: (Fe^2+^_0.5_Fe^3+^_0.5_)_2_Fe^3+^_3_(PO_4_)_3_(OH)_5_
Locality: Tip Top mine, Custer County, South Dakota, USA
Source: Marcus Origlieri
Description: Dark reddish brown elongated prismatic crystals associated with jahnsite-(CaMnMg), R060213
Measured chemistry: (Fe^2+^_0.62_Mn^2+^_0.33_Mg_0.05_)_Î£=1_Fe^3+^_4.00_(P_1.00_O_4_)_3_(OH)_5_; OH estimated by difference; Fe2+ and Fe3+ by charge balance
Raman shift (cm-1)	intensity
191.315	0
194.208	1.40717
197.101	13.6083
199.994	12.7624
202.886	8.02234
205.779	10.626
208.672	6.14941
211.565	10.1649
214.457	3.29523
217.35	10.2842
220.243	13.5179
223.135	19.3037
226.028	10.8157
228.921	18.1715
231.813	12.456
234.706	14.3354
237.599	7.34973
240.492	9.70172
243.384	2.03058
246.277	3.09039
249.17	1.32574
252.062	1.77045
254.955	2.27789
257.848	8.97742
260.74	7.48071
263.633	3.40265
266.526	10.4877
269.418	11.733
272.311	23.2525
275.204	30.7386
278.097	33.2664
280.989	31.0357
283.882	37.4813
286.775	37.1801
289.667	32.911
292.56	31.7875
295.453	27.9246
298.346	14.9381
301.238	16.7477
304.131	19.8221
307.024	4.33936
309.916	1.5777
312.809	14.7191
315.702	15.8353
318.594	22.8826
321.487	16.858
324.38	18.0985
327.273	31.1609
330.165	25.9899
333.058	20.4106
335.951	26.3449
338.843	19.5607
341.736	10.1008
344.629	7.58252
347.522	1.72803
350.414	8.10504
353.307	5.90631
356.2	6.32947
359.092	6.51178
361.985	6.97534
364.878	4.31885
367.77	6.06525
370.663	6.36243
373.556	1.3587
376.449	6.1029
379.341	16.4248
382.234	13.755
385.127	16.6511
388.019	20.2798
390.912	9.42169
393.805	0.973572
396.697	4.15008
399.59	2.51788
402.483	8.26813
405.376	10.2449
408.268	10.0584
411.161	5.07922
414.054	7.94098
416.946	2.82355
419.839	16.5603
422.732	13.5861
425.625	27.7175
428.517	35.3892
431.41	54.0709
434.303	51.3381
437.195	67.024
440.088	65.3146
442.981	63.6547
445.873	69.5465
448.766	81.3866
451.659	96.4416
454.551	117.162
457.444	126.443
460.337	146.5
463.23	143.166
466.122	132.477
469.015	114.188
471.908	90.645
474.8	68.6658
477.693	59.5166
480.586	45.7709
483.479	36.4107
486.371	32.9304
489.264	22.5702
492.157	18.5598
495.049	15.6028
497.942	10.923
500.835	13.3909
503.728	8.75342
506.62	3.95575
509.513	10.4895
512.406	1.12408
515.298	9.38922
518.191	7.05774
521.084	3.98498
523.976	1.45392
526.869	2.24829
529.762	0.804565
532.654	2.96161
535.547	10.2235
538.44	5.8186
541.333	1.35565
544.225	1.77966
547.118	0.169922
550.011	7.65057
552.903	8.96619
555.796	20.0069
558.689	18.0217
561.582	24.0721
564.474	23.1181
567.367	29.3497
570.26	51.5133
573.152	58.8684
576.045	53.9045
578.938	47.2462
581.83	44.1766
584.723	42.8373
587.616	35.2794
590.509	50.0671
593.401	39.9376
596.294	27.3131
599.187	24.0879
602.079	19.2825
604.972	11.1422
607.865	8.31256
610.758	15.8971
613.65	11.237
616.543	6.91257
619.436	12.1322
622.328	6.06226
625.221	13.0175
628.114	0.008698
631.006	0.855804
633.899	4.21014
636.792	1.54999
639.684	0.009583
642.577	1.85184
645.47	0.590271
648.363	3.88513
651.255	1.97653
654.148	3.5914
657.041	5.72418
659.933	7.01556
662.826	7.12253
665.719	13.113
668.612	8.53012
671.504	11.3678
674.397	11.6737
677.29	5.5231
680.182	10.5267
683.075	18.313
685.968	15.36
688.861	18.4608
691.753	24.0578
694.646	21.6273
697.539	22.1973
700.431	24.7991
703.324	22.5682
706.217	24.9638
709.109	28.1375
712.002	26.9916
714.895	23.3033
717.788	26.9415
720.68	22.5317
723.573	26.4963
726.466	19.45
729.358	28.5296
732.251	31.4252
735.144	22.4921
738.036	21.8468
740.929	17.3624
743.822	20.1343
746.715	18.8983
749.607	16.8048
752.5	10.1351
755.393	10.1482
758.285	4.94782
761.178	5.4118
764.071	17.9278
766.963	7.67481
769.856	9.08771
772.749	2.7901
775.642	2.01315
778.534	6.42682
781.427	3.16183
784.32	4.01367
787.212	3.02533
790.105	6.75006
792.998	6.54892
795.89	7.09143
798.783	3.25217
801.676	2.12936
804.569	2.03622
807.461	3.68634
810.354	2.06671
813.247	4.38614
816.139	2.39768
819.032	5.45633
821.925	2.79654
824.818	2.05756
827.71	1.6882
830.603	3.94653
833.496	1.79715
836.388	1.56256
839.281	1.98785
842.174	0.055695
845.067	6.28922
847.959	8.9989
850.852	13.478
853.745	10.0718
856.637	7.3313
859.53	7.95212
862.423	7.84924
865.315	9.29877
868.208	11.6699
871.101	9.16705
873.994	9.72122
876.886	6.21268
879.779	17.843
882.672	8.60986
885.564	1.70221
888.457	9.47562
891.35	4.92545
894.242	3.15604
897.135	1.22
900.028	2.12643
902.92	0.835266
905.813	0.464355
908.706	0.479919
911.599	0.533234
914.491	1.22791
917.384	1.59024
920.277	5.31952
923.169	1.96396
926.062	6.72641
928.955	7.69379
931.847	12.5285
934.74	11.584
937.633	22.9921
940.526	29.2254
943.418	31.6393
946.311	53.549
949.204	77.5394
952.096	116.264
954.989	138.99
957.882	170.655
960.775	179.764
963.667	176.407
966.56	159.699
969.453	132.487
972.345	108.703
975.238	77.9475
978.131	57.0737
981.024	46.0594
983.916	37.8923
986.809	36.8259
989.702	28.1061
992.594	39.9349
995.487	41.6496
998.38	42.2911
1001.27	40.4492
1004.16	36.5854
1007.06	38.848
1009.95	39.9829
1012.84	31.1762
1015.74	27.1856
1018.63	15.761
1021.52	0.302582
1024.41	0.528473
1027.31	0.531036
1030.2	5.59808
1033.09	13.1601
1035.98	14.8485
1038.88	20.1351
1041.77	26.0055
1044.66	19.7618
1047.56	17.7777
1050.45	20.4636
1053.34	25.7753
1056.23	20.1406
1059.13	34.7585
1062.02	40.2758
1064.91	34.9291
1067.81	27.8874
1070.7	17.7122
1073.59	15.6751
1076.48	12.1706
1079.38	3.12195
1082.27	0.850037
1085.16	1.91541
1088.05	2.30597
1090.95	7.74554
1093.84	5.11389
1096.73	2.68201
1099.62	11.1609
1102.52	13.6284
1105.41	7.7334
1108.3	29.8323
1111.19	39.1232
1114.09	44.2867
1116.98	44.2591
1119.87	28.5196
1122.77	20.9908
1125.66	14.6141
1128.55	13.9273
1131.44	9.69769
1134.34	9.63544
1137.23	3.85022
1140.12	6.80859
1143.02	5.61316
1145.91	5.06116
1148.8	4.16577
1151.69	6.98663
1154.59	1.94531
1157.48	2.29584
1160.37	0.775757
1163.26	8.73718
1166.16	3.09845
1169.05	1.34943
1171.94	6.30774
1174.84	7.16565
1177.73	4.95648
1180.62	7.90314
1183.51	8.77972
1186.4	6.36023
1189.3	6.7453
1192.19	14.5554
1195.08	5.85303
1197.98	10.2233
1200.87	8.23199
1203.76	4.4184
1206.65	4.67035
1209.55	2.85419
1212.44	4.2854
1215.33	7.7533
1218.22	7.19995
1221.12	9.52631
1224.01	0.153992
1226.9	5.37512
1229.8	3.34198
1232.69	8.51648
1235.58	6.33728
1238.47	0.904114
1241.37	3.68671
1244.26	4.27197
1247.15	4.86621
1250.05	5.40033
1252.94	5.86829
1255.83	3.26929
1258.72	7.54224
1261.62	12.0152
1264.51	9.20325
1267.4	4.30804
1270.29	1.0072
1273.19	5.54968
1276.08	5.05438
1278.97	3.67542
1281.87	4.51953
1284.76	4.53217
1287.65	10.4576
1290.54	8.40472
1293.43	11.2739
1296.33	6.9317
1299.22	5.03607
1302.11	0.045837
