Measurement: Raman, 532 nm, unoriented, Raman Data Processed
Mineral: Romarchite
Rruff sample: R080006
Ideal chemistry: SnO
Locality: Boundary Falls, Winnipeg River, Ontario, Canada
Source: Royal Ontario Museum
Description: Incrusted lustrous black crystals, reported to be fine-grained psuedomorphs of an unknown phase. Co-type material.
Measured chemistry: Sn_1.00_O
Raman shift (cm-1)	intensity
121.369	0
124.744	6.04713
128.119	9.09528
131.494	8.80818
134.868	3.94275
138.243	4.66303
141.618	1.65678
144.993	0.26268
148.368	1.23485
151.742	0.612732
155.117	0.09816
158.492	1.85671
161.867	4.36539
165.242	7.36026
168.616	15.9223
171.991	25.1999
175.366	35.2082
178.741	50.2088
182.116	68.7437
185.49	92.2936
188.865	117.002
192.24	146.224
195.615	173.009
198.99	200.478
202.365	219.306
205.739	218.648
209.114	195.951
212.489	158.084
215.864	118.231
219.239	83.8418
222.613	57.97
225.988	43.0695
229.363	29.4242
232.738	21.1153
236.113	15.1442
239.488	9.48068
242.862	7.20441
246.237	6.27342
249.612	3.67018
252.987	1.22229
256.362	0.153137
259.736	0.731354
263.111	0.057281
266.486	1.0594
269.861	0.056595
273.236	1.14175
276.611	1.46791
279.985	1.65681
283.36	2.79323
286.735	1.71957
290.11	2.67569
293.485	2.13083
296.859	3.72227
300.234	2.47996
303.609	3.4809
306.984	3.99789
310.359	4.28536
313.733	4.06676
317.108	3.91039
320.483	1.74771
323.858	0.899643
327.233	2.13149
330.608	1.82822
333.982	3.5628
337.357	2.38715
340.732	2.6517
344.107	4.5614
347.482	4.51291
350.856	3.21249
354.231	3.92622
357.606	3.95703
360.981	3.93831
364.356	2.99341
367.731	2.85828
371.105	1.08849
374.48	1.3149
377.855	0.295776
381.23	0.221664
384.605	0.18541
387.979	0.028854
391.354	0.673233
394.729	0.270996
398.104	0.799026
401.479	1.6371
404.853	0.910324
408.228	0.076935
411.603	1.09059
414.978	1.1552
418.353	1.24635
421.728	1.63811
425.102	0.505051
428.477	2.08685
431.852	1.92511
435.227	1.28113
438.602	1.76663
441.976	1.94925
445.351	2.38516
448.726	2.23604
452.101	1.94161
455.476	1.1236
458.851	1.84697
462.225	0.663559
465.6	1.66742
468.975	1.54819
472.35	1.4753
475.725	0.857452
479.099	2.59711
482.474	0.213394
485.849	2.29776
489.224	2.07602
492.599	1.78947
495.974	2.84303
499.348	3.15852
502.723	1.97481
506.098	1.6174
509.473	0.792542
512.848	1.85046
516.222	1.4644
519.597	2.62799
522.972	1.87672
526.347	2.72792
529.722	3.4809
533.097	2.52799
536.471	2.59045
539.846	2.15329
543.221	1.11987
546.596	1.60867
549.971	1.00687
553.346	1.51443
556.72	1.46675
560.095	1.40375
563.47	0.989532
566.845	0.134796
570.22	0.186539
573.594	0.098206
576.969	0.276291
580.344	0.035995
583.719	0.581528
587.094	0.527451
590.468	0.438873
593.843	0.048859
597.218	0.735962
600.593	0.17128
603.968	0.095139
607.342	1.63409
610.717	1.86375
614.092	1.71816
617.467	2.27594
620.842	2.88657
624.217	5.2869
627.591	6.57591
630.966	6.89034
634.341	7.51204
637.716	10.03
641.091	11.5284
644.466	12.4249
647.84	13.682
651.215	13.5797
654.59	12.8019
657.965	14.169
661.34	14.3165
664.714	13.7922
668.089	13.7203
671.464	13.7768
674.839	14.9156
678.214	16.0157
681.588	16.965
684.963	15.7337
688.338	15.8325
691.713	14.8943
695.088	12.8207
698.463	10.9979
701.837	7.11563
705.212	7.24759
708.587	5.99289
711.962	4.86871
715.337	2.54765
718.711	3.94067
722.086	3.84374
725.461	4.68718
728.836	5.37071
732.211	6.14841
735.586	8.31636
738.96	10.0854
742.335	10.0137
745.71	10.0996
749.085	8.64995
752.46	7.17436
755.834	4.75061
759.209	2.84969
762.584	1.909
765.959	0.924133
769.334	0.225677
772.708	0.183487
776.083	0.474854
779.458	1.17621
782.833	0.136307
786.208	0.568726
789.583	0.315445
792.957	0.156967
796.332	0.413773
799.707	0.348114
803.082	1.0679
806.457	1.00002
809.832	0.237686
813.206	1.73927
816.581	1.00633
819.956	1.85146
823.331	1.75779
826.706	2.21092
830.08	1.51244
833.455	2.34022
836.83	2.99304
840.205	2.019
843.58	2.49825
846.955	1.48106
850.329	1.49258
853.704	0.721794
857.079	2.3146
860.454	1.28128
863.829	1.69273
867.203	2.16188
870.578	1.92874
873.953	2.19019
877.328	0.861938
880.703	3.38323
884.077	0.410873
887.452	0.491081
890.827	1.95117
894.202	0.979004
897.577	1.01141
900.952	1.03551
904.326	1.39648
907.701	0.752243
911.076	0.679138
914.451	0.409424
917.826	0.543488
921.2	0.541962
924.575	0.065567
927.95	0.105148
931.325	0.509995
934.7	0.834122
938.074	1.10904
941.449	0.615509
944.824	1.8943
948.199	0.77803
951.574	0.346664
954.949	1.44084
958.323	0.733307
961.698	1.02304
965.073	0.397476
968.448	1.72687
971.823	1.18636
975.197	1.91733
978.572	0.991928
981.947	1.34106
985.322	0.229874
988.697	1.32428
992.072	1.00337
995.446	1.38217
998.821	1.41269
1002.2	0.931778
1005.57	0.068466
1008.95	1.22536
1012.32	1.3573
1015.7	0.686371
1019.07	0.830978
1022.45	1.11531
1025.82	1.04105
1029.19	0.753494
1032.57	2.04971
1035.94	1.13547
1039.32	1.55731
1042.69	1.36339
1046.07	0.809036
1049.44	0.05751
1052.82	0.853271
1056.19	0.883194
1059.57	0.754578
1062.94	1.12178
1066.32	0.431305
1069.69	1.53122
1073.07	1.226
1076.44	0.887909
1079.82	2.1124
1083.19	1.13023
1086.57	0.381561
1089.94	0.627609
1093.32	0.75444
1096.69	1.40389
1100.07	0.021362
1103.44	0.532089
1106.82	1.1329
1110.19	0.745834
1113.57	0.787445
1116.94	0.706238
1120.32	0.392212
1123.69	0.034424
1127.06	0.786865
1130.44	0.981003
1133.81	0.730713
1137.19	0.671036
1140.56	1.33197
1143.94	0.400864
1147.31	0.744324
1150.69	1.78989
1154.06	0.197113
1157.44	0.770203
1160.81	1.68796
1164.19	1.58814
1167.56	1.40785
1170.94	1.51085
1174.31	1.45004
1177.69	0.612793
1181.06	0.781937
1184.44	0.718796
1187.81	0.456131
1191.19	0.505066
1194.56	0.33078
1197.93	0.018982
1201.31	0.311615
1204.68	0.460266
1208.06	1.66473
1211.43	0.467575
1214.81	0.652908
1218.18	0.743561
1221.56	1.31255
1224.93	0.753967
1228.31	1.01373
1231.68	0.394745
1235.06	1.2245
1238.43	0.274551
1241.81	0.593491
1245.18	0.30127
1248.56	0.928772
1251.93	1.06528
1255.31	0.998016
1258.68	0.232697
1262.06	0.248428
1265.43	1.93639
1268.81	1.10669
1272.18	2.28252
1275.56	0.771729
1278.93	1.73799
1282.31	2.00204
1285.68	1.26633
1289.06	0.825653
1292.43	0.941025
1295.81	1.11871
1299.18	1.31284
1302.56	0.899033
