Measurement: Raman, 532 nm, unoriented, Raman Data Processed
Mineral: Roscherite
Rruff sample: R070308
Ideal chemistry: Ca_2_Mn^2+^_5_Be_4_(PO_4_)_6_(OH)_4_6H_2_O
Locality: Black Mountain Quarry, Rumford, Oxford County, Maine, USA
Source: James Shigley
Description: Reddish brown prismatic crystals associated with white albite. The color is a thin coating of something. Based on cell parameters, we cannot exclude greifensteinite as the identification, without chemical analysis.
Raman shift (cm-1)	intensity
157.376	0
160.268	32.5264
163.161	20.3232
166.054	214.731
168.946	527.274
171.839	680.552
174.732	693.986
177.625	475.052
180.517	370.975
183.41	267.716
186.303	341.696
189.195	257.946
192.088	414.703
194.981	347.124
197.874	350.721
200.766	378.437
203.659	485.276
206.552	485.506
209.444	513.423
212.337	561.176
215.23	528.536
218.122	400.867
221.015	298.566
223.908	286.503
226.8	321.312
229.693	218.399
232.586	171.037
235.479	183.858
238.371	240.084
241.264	245.824
244.157	260.131
247.049	280.291
249.942	425.383
252.835	325.728
255.727	371.412
258.62	321.471
261.513	419.56
264.406	336.113
267.298	259.348
270.191	180.568
273.084	151.881
275.976	148.348
278.869	168.373
281.762	57.8438
284.655	106.01
287.547	152.022
290.44	196.406
293.333	181.352
296.225	91.9004
299.118	128.643
302.011	30.9277
304.904	66.5332
307.796	54.7949
310.689	0.535156
313.582	60.8125
316.474	128.08
319.367	38.9785
322.26	64.4981
325.152	20.4551
328.045	158.185
330.938	31.1641
333.83	40.4141
336.723	38.9316
339.616	16.0312
342.509	32.3691
345.401	19.332
348.294	72.1094
351.187	83.9961
354.079	28.0762
356.972	52.4473
359.865	158.475
362.757	123.74
365.65	174.541
368.543	274.15
371.436	401.777
374.328	390.078
377.221	545.289
380.114	375.926
383.006	450.9
385.899	582.773
388.792	800.934
391.685	947.352
394.577	1119.77
397.47	1218.39
400.363	1086.22
403.255	1107.62
406.148	848.602
409.041	785.053
411.933	639.713
414.826	537.781
417.719	489.555
420.611	308.162
423.504	244.572
426.397	205.959
429.29	295.801
432.182	196.029
435.075	186.328
437.968	205.272
440.86	36.2773
443.753	95.4199
446.646	42.3555
449.538	151.412
452.431	137.353
455.324	112.297
458.217	286.34
461.109	199.981
464.002	161.492
466.895	155.004
469.787	81.25
472.68	80.6152
475.573	224.699
478.466	126.711
481.358	59.623
484.251	189.688
487.144	140.824
490.036	142.562
492.929	27.8242
495.822	36.2695
498.714	237.668
501.607	10.7949
504.5	46.4551
507.393	16.6172
510.285	39.0137
513.178	19.125
516.071	121.596
518.963	70.8281
521.856	35.4062
524.749	43.9688
527.641	65.2031
530.534	98.2285
533.427	106.723
536.32	53.043
539.212	244.801
542.105	371.512
544.998	319.773
547.89	468.857
550.783	497.629
553.676	655.84
556.568	749.887
559.461	649.844
562.354	594.088
565.247	517.271
568.139	527.106
571.032	610.205
573.925	825.949
576.817	851.416
579.71	735.4
582.603	475.926
585.495	388.629
588.388	238.248
591.281	184.266
594.174	234.318
597.066	270.443
599.959	295.477
602.852	303.582
605.744	154.336
608.637	186.152
611.53	179.684
614.423	66.2246
617.315	206.053
620.208	87.666
623.101	172.603
625.993	205.215
628.886	283.394
631.779	367.619
634.671	328.668
637.564	380.369
640.457	242.197
643.35	222.299
646.242	237.641
649.135	328.697
652.028	262.098
654.92	222.019
657.813	207.35
660.706	295.023
663.598	267.574
666.491	215.072
669.384	227.603
672.277	133.143
675.169	249.578
678.062	157.369
680.955	99.9356
683.847	32.6602
686.74	139.504
689.633	189.516
692.525	176.031
695.418	106.91
698.311	7.10156
701.204	83.625
704.096	50.2383
706.989	82.5625
709.882	66.6211
712.774	110.367
715.667	14.7305
718.56	64.7148
721.452	11.9336
724.345	43.9219
727.238	103.504
730.131	62.6289
733.023	142.422
735.916	13.2812
738.809	12.918
741.701	174.141
744.594	33.4375
747.487	107.797
750.38	214.762
753.272	234.582
756.165	208.039
759.058	134.602
761.95	210.062
764.843	443.68
767.736	359.461
770.628	394.547
773.521	324.723
776.414	207.254
779.307	246.551
782.199	166.301
785.092	236.168
787.985	72.3359
790.877	49.4492
793.77	274.957
796.663	129.023
799.555	54.4414
802.448	67.4258
805.341	40.9844
808.234	261.625
811.126	412.992
814.019	303.754
816.912	135.371
819.804	255.594
822.697	161.461
825.59	86.0078
828.482	154.949
831.375	94.75
834.268	51.5039
837.16	44.293
840.053	176.258
842.946	163.023
845.839	24.5703
848.731	86.6758
851.624	97.2422
854.517	51.3906
857.409	160.856
860.302	119.363
863.195	64.8906
866.087	21.0586
868.98	128.266
871.873	13.7305
874.766	169.723
877.658	158.816
880.551	204.156
883.444	94.8594
886.337	163.406
889.229	103.418
892.122	126.168
895.015	104.113
897.907	94.3086
900.8	140.414
903.693	54.4414
906.585	16.3398
909.478	59
912.371	171.777
915.264	109.82
918.156	15.0273
921.049	30.6133
923.942	85.3633
926.834	88.0742
929.727	18.3906
932.62	155.129
935.512	59.1641
938.405	220.547
941.298	329.184
944.191	473.906
947.083	432.746
949.976	494.894
952.869	604.176
955.761	689.34
958.654	972.836
961.547	1060.93
964.439	1624.36
967.332	2108.09
970.225	3068.86
973.117	4066.54
976.01	5033.2
978.903	5567.43
981.796	5207.17
984.688	4393.87
987.581	3902.96
990.474	3455.81
993.366	2942
996.259	2276.48
999.152	1968.36
1002.04	1738.44
1004.94	1605.14
1007.83	1096.26
1010.72	1039.06
1013.62	862.82
1016.51	750.672
1019.4	673.688
1022.29	706.227
1025.19	504.207
1028.08	410.141
1030.97	484.379
1033.86	330.234
1036.76	85.6016
1039.65	97.5664
1042.54	145.473
1045.43	83.7773
1048.33	19.0898
1051.22	34.3164
1054.11	61.6797
1057.01	113.902
1059.9	119.969
1062.79	111.543
1065.68	142.203
1068.58	232.379
1071.47	200
1074.36	213.969
1077.26	305.481
1080.15	287.707
1083.04	305.68
1085.93	100.984
1088.83	93.5938
1091.72	102.785
1094.61	151.66
1097.5	189.367
1100.4	118.32
1103.29	222
1106.18	100.316
1109.07	268.512
1111.97	128.094
1114.86	41.582
1117.75	39.1094
1120.64	28.3945
1123.54	161.863
1126.43	116.215
1129.32	2.24219
1132.22	150.629
1135.11	177.09
1138	70.75
1140.89	158.547
1143.79	262.852
1146.68	203.262
1149.57	213.82
1152.46	276.348
1155.36	0.613281
1158.25	298.387
1161.14	222.273
1164.04	51.5039
1166.93	307.191
1169.82	34.8086
1172.71	36.2031
1175.61	164.316
1178.5	80.332
1181.39	68.1641
1184.29	99.7344
1187.18	100.731
1190.07	242.762
1192.96	15.3906
1195.86	137.062
1198.75	36.8633
1201.64	49.3867
1204.53	225.934
1207.43	38.168
1210.32	44.7266
1213.21	151.387
1216.1	115.574
1219	118.789
1221.89	189.703
1224.78	45.6523
1227.67	166.242
1230.57	148.148
1233.46	44.4648
1236.35	99.043
1239.25	77.6641
1242.14	289.918
1245.03	71.6445
1247.92	282.418
1250.82	201.824
1253.71	207.801
1256.6	191.566
1259.49	91.1484
1262.39	130.184
1265.28	258.992
1268.17	248.07
1271.07	341.047
1273.96	214.719
1276.85	251.949
1279.74	96.3594
1282.64	260.141
1285.53	311.699
1288.42	335.664
1291.32	263.004
1294.21	207.18
1297.1	86.3945
1299.99	253.031
1302.88	188.93
1305.78	212.055
1308.67	67.6328
