Measurement: Raman, 785 nm, unoriented, Raman Data Processed
Mineral: Roscherite
Rruff sample: R070308
Ideal chemistry: Ca_2_Mn^2+^_5_Be_4_(PO_4_)_6_(OH)_4_6H_2_O
Locality: Black Mountain Quarry, Rumford, Oxford County, Maine, USA
Source: James Shigley
Description: Reddish brown prismatic crystals associated with white albite. The color is a thin coating of something. Based on cell parameters, we cannot exclude greifensteinite as the identification, without chemical analysis.
Raman shift (cm-1)	intensity
167.303	0
170.195	253.847
173.088	376.324
175.981	305.095
178.873	156.037
181.766	3.78223
184.659	10.4209
187.552	6.00781
190.444	57.0078
193.337	162.431
196.23	205.065
199.122	333.371
202.015	471.868
204.908	572.314
207.8	749.908
210.693	849.322
213.586	720.788
216.478	624.608
219.371	476.415
222.264	491.889
225.157	342.349
228.049	329.342
230.942	250.306
233.835	197.127
236.727	159.048
239.62	233.933
242.513	273.212
245.405	316.586
248.298	354.336
251.191	311.196
254.084	380.583
256.976	426.169
259.869	515.203
262.762	342.986
265.654	327.93
268.547	304.239
271.44	217.428
274.332	139.178
277.225	129.26
280.118	145.125
283.011	100.77
285.903	154.655
288.796	136.245
291.689	147.336
294.581	91.5938
297.474	0.600586
300.367	20.3584
303.26	10.2188
306.152	41.8027
309.045	48.2744
311.938	11.8164
314.83	42.6309
317.723	2.42188
320.616	6.74902
323.508	29.8496
326.401	47.6982
329.294	85.0713
332.187	154.795
335.079	107.632
337.972	78.582
340.865	40.1387
343.757	7.00098
346.65	19.375
349.543	43.0469
352.435	35.7529
355.328	8.04492
358.221	55.6143
361.113	154.757
364.006	107.746
366.899	225.079
369.792	295.919
372.684	356.789
375.577	508
378.47	708.534
381.362	812.907
384.255	946.557
387.148	1279.8
390.041	1558.66
392.933	2010.23
395.826	2285.64
398.719	2462.63
401.611	2415.77
404.504	2073.31
407.397	1770.06
410.289	1505.51
413.182	1285.35
416.075	1092.31
418.967	801.03
421.86	653.727
424.753	513.336
427.646	426.617
430.538	295.242
433.431	290.738
436.324	273.636
439.216	68.1279
442.109	50.709
445.002	64.6982
447.894	76.1611
450.787	35.5518
453.68	53.9199
456.573	74.7227
459.465	78.5625
462.358	234.641
465.251	200.455
468.143	148.006
471.036	105.781
473.929	119.211
476.822	125.72
479.714	98.1201
482.607	17.6748
485.5	95.0283
488.392	81.8203
491.285	113.716
494.178	99.001
497.07	131.802
499.963	1.50586
502.856	101.388
505.748	28.4736
508.641	23.251
511.534	54.2725
514.427	55.4717
517.319	123.095
520.212	198.65
523.105	192.752
525.997	235.821
528.89	78.4707
531.783	130.2
534.676	62.5117
537.568	136.547
540.461	191.603
543.354	242.803
546.246	274.378
549.139	340.806
552.032	447.673
554.924	523.323
557.817	561.596
560.71	533.132
563.602	463.963
566.495	455.585
569.388	562.085
572.281	671.464
575.173	814.981
578.066	899.39
580.959	828.311
583.851	604.884
586.744	569.526
589.637	476.663
592.529	433.734
595.422	520.523
598.315	680.58
601.208	639.668
604.1	679.133
606.993	443.2
609.886	287.462
612.778	124.818
615.671	130.704
618.564	124.357
621.457	164.51
624.349	288.722
627.242	273.744
630.135	298.704
633.027	276.676
635.92	221.981
638.813	202.607
641.705	51.1943
644.598	76.916
647.491	14.292
650.384	14.3418
653.276	31.7559
656.169	9.44629
659.062	40.21
661.954	26.0654
664.847	20.2402
667.74	7.61328
670.632	4.42383
673.525	41.8184
676.418	17.1875
679.311	52.0391
682.203	105.673
685.096	87.4297
687.989	33.5478
690.881	94.7588
693.774	85.9473
696.667	128.805
699.559	47.8809
702.452	142.587
705.345	36.9766
708.237	55.7978
711.13	20.9229
714.023	110.638
716.916	108.019
719.808	40.3272
722.701	123.925
725.594	48.9043
728.486	57.9043
731.379	73.9277
734.272	36.2891
737.164	32.0977
740.057	52.6602
742.95	144.887
745.843	89.6318
748.735	122.631
751.628	195.507
754.521	177.964
757.413	238.173
760.306	281.856
763.199	277.886
766.091	321.218
768.984	346.19
771.877	352.697
774.77	323.356
777.662	313.343
780.555	257.509
783.448	189.235
786.34	239.497
789.233	83.5635
792.126	158.073
795.019	146.522
797.911	110.268
800.804	25.1406
803.697	131.216
806.589	77.1035
809.482	14.5371
812.375	119.522
815.267	22.1689
818.16	124.256
821.053	43.3574
823.946	62.4932
826.838	63.0986
829.731	74.9404
832.624	35.418
835.516	15.1435
838.409	74.1611
841.302	98.8106
844.194	65.4141
847.087	124.715
849.98	35.9482
852.872	89.8936
855.765	136.601
858.658	51.8965
861.551	28.6943
864.443	99.9062
867.336	59.2275
870.229	143.746
873.121	96.1074
876.014	75.4365
878.907	89.3701
881.799	91.6201
884.692	48.0352
887.585	15.4082
890.478	78.2559
893.37	67.1699
896.263	147.256
899.156	10.6406
902.048	15.0654
904.941	2.63281
907.834	56.6865
910.726	16.2832
913.619	44.3184
916.512	14.0537
919.405	3.14648
922.297	10.6055
925.19	5.64746
928.083	60.9424
930.975	73.2432
933.868	34.5273
936.761	156.502
939.654	140.289
942.546	247.496
945.439	360.001
948.332	419.501
951.224	566.509
954.117	570.146
957.01	734.116
959.902	897.482
962.795	1158.41
965.688	1615.11
968.581	2336.11
971.473	3219.46
974.366	4210.23
977.259	5196.25
980.151	5398.44
983.044	5020.31
985.937	4425.63
988.829	3777.32
991.722	3274.96
994.615	2705.18
997.508	2367.31
1000.4	1880.4
1003.29	1586.69
1006.19	1366.45
1009.08	1144.42
1011.97	960.519
1014.86	863.108
1017.76	696.402
1020.65	647.829
1023.54	483.796
1026.43	482.269
1029.33	292.456
1032.22	257.907
1035.11	165.578
1038.01	190.347
1040.9	85.1318
1043.79	44.3447
1046.68	22.4326
1049.58	4.94922
1052.47	7.05664
1055.36	48.8164
1058.25	7.64648
1061.15	98.3955
1064.04	130.958
1066.93	166.718
1069.83	78.8691
1072.72	108.033
1075.61	73.376
1078.5	68.4307
1081.4	97.4824
1084.29	38.4253
1087.18	48.0762
1090.07	12.6377
1092.97	20.6328
1095.86	15.0337
1098.75	54.5781
1101.64	41.0181
1104.54	41.9829
1107.43	53.0185
1110.32	31.9849
1113.21	72.1753
1116.11	34.6299
1119	53.0161
1121.89	39.5498
1124.79	4.66211
1127.68	3.49512
1130.57	65.7812
1133.46	12.7876
1136.36	79.3198
1139.25	70.895
1142.14	121.152
1145.04	152.97
1147.93	81.4985
1150.82	93.9219
1153.71	139.439
1156.61	54.6909
1159.5	7.28857
1162.39	22.5405
1165.28	65.7153
1168.18	26.1226
1171.07	73.8076
1173.96	57.1245
1176.86	11.353
1179.75	54.6914
1182.64	3.85156
1185.53	41.5664
1188.43	24.498
1191.32	85.6626
1194.21	61.5884
1197.1	75.6313
1200	96.6177
1202.89	48.2861
1205.78	118.76
1208.67	79.7065
1211.57	53.3965
1214.46	54.3765
1217.35	1.18652
1220.24	76.6416
1223.14	1.07275
