Measurement: Raman, 785 nm, unoriented, Raman Data Processed
Mineral: Rostite
Rruff sample: R061001
Ideal chemistry: AlS^6+^O_4_(OH)5H_2_O
Locality: Kladno, Bohmen, Czech Republic
Source: Michael Scott
Description: Chalky white nodular aggregates
Raman shift (cm-1)	intensity
183.239	0
186.132	43.0225
189.024	54.918
191.917	20.5332
194.81	117.797
197.702	100.395
200.595	102.619
203.488	174.95
206.381	159.969
209.273	73.0996
212.166	34.2832
215.059	66.625
217.951	11.169
220.844	102.26
223.737	234.81
226.629	191.861
229.522	118.605
232.415	119.64
235.308	147.766
238.2	178.912
241.093	79.4736
243.986	144.961
246.878	109.73
249.771	31.374
252.664	132.311
255.556	128.701
258.449	194.315
261.342	205.81
264.235	118.817
267.127	97.167
270.02	106.603
272.913	121.296
275.805	79.3418
278.698	132.536
281.591	174.908
284.483	139.997
287.376	110.82
290.269	64.3857
293.161	178.331
296.054	145.607
298.947	104.775
301.84	203.418
304.732	100.999
307.625	170.658
310.518	153.218
313.41	128.685
316.303	106.629
319.196	25.0283
322.089	17.9844
324.981	152.442
327.874	115.946
330.767	226.038
333.659	144.495
336.552	48.1357
339.445	78.9414
342.337	11.9961
345.23	118.37
348.123	29.5186
351.015	137.538
353.908	141.433
356.801	24.0684
359.694	87.6982
362.586	33.7227
365.479	6.59961
368.372	30.4814
371.264	56.7978
374.157	51.4551
377.05	38.8477
379.942	68.2559
382.835	42.4658
385.728	73.9365
388.62	36.6211
391.513	68.9453
394.406	63.6592
397.299	125.079
400.191	89.8828
403.084	93.4023
405.977	98.2998
408.869	77.7812
411.762	102.081
414.655	96.7295
417.548	163.727
420.44	188.894
423.333	106.12
426.226	43.0449
429.118	76.3301
432.011	262.643
434.904	155.595
437.796	171.83
440.689	299.72
443.582	267.583
446.474	226.977
449.367	250.317
452.26	235.353
455.153	165.798
458.045	261.884
460.938	214.4
463.831	282.081
466.723	232.674
469.616	238.095
472.509	154.668
475.401	133.843
478.294	125.002
481.187	85.7197
484.08	4.87793
486.972	78.4619
489.865	179.635
492.758	87.8384
495.65	93.479
498.543	56.8091
501.436	57.6455
504.329	0.35791
507.221	4.25684
510.114	99.499
513.007	83.8843
515.899	53.4956
518.792	115.186
521.685	187.57
524.577	137.382
527.47	146.247
530.363	170.792
533.255	5.13916
536.148	32.2837
539.041	117.827
541.933	125.661
544.826	60.4282
547.719	95.4863
550.612	65.8726
553.504	33.9409
556.397	107.882
559.29	144.376
562.182	145.066
565.075	0.723145
567.968	32.4297
570.861	31.061
573.753	60.2817
576.646	120.844
579.539	103.482
582.431	53.8901
585.324	202.605
588.217	117.815
591.109	172.85
594.002	165.363
596.895	167.017
599.788	213.452
602.68	224.578
605.573	271.72
608.466	279.984
611.358	307.148
614.251	349.945
617.144	337.889
620.036	304.376
622.929	336.565
625.822	218.423
628.715	250.784
631.607	264.028
634.5	187.562
637.393	209.565
640.285	201.217
643.178	117.568
646.071	83.4351
648.963	33.7041
651.856	41.6318
654.749	124.549
657.641	124.813
660.534	139.834
663.427	60.8306
666.32	19.9399
669.212	92.8618
672.105	72.3003
674.998	82.9209
677.89	62.603
680.783	53.5918
683.676	69.2637
686.568	19.1636
689.461	40.2544
692.354	56.9043
695.247	112.069
698.139	44.3999
701.032	99.2358
703.925	59.2393
706.817	41.9297
709.71	73.2329
712.603	10.1499
715.495	54.7685
718.388	57.8272
721.281	70.791
724.174	25.5483
727.066	74.6294
729.959	56.5576
732.852	44.2944
735.744	57.2676
738.637	81.6856
741.53	76.4614
744.422	2.53125
747.315	243.051
750.208	107.383
753.101	105.946
755.993	115.99
758.886	84.0068
761.779	102.005
764.671	41.1143
767.564	32.4287
770.457	92.853
773.349	145.223
776.242	35.5386
779.135	140.853
782.028	105.995
784.92	108.193
787.813	131.879
790.706	152.131
793.598	137.57
796.491	116.72
799.384	20.4976
802.276	8.18701
805.169	164.496
808.062	108.262
810.955	129.454
813.847	173.388
816.74	96.0034
819.633	96.6055
822.525	199.527
825.418	42.187
828.311	86.2656
831.203	127.866
834.096	103.493
836.989	155.018
839.881	4.11377
842.774	80.3472
845.667	51.7192
848.56	49.6128
851.452	150.07
854.345	98.6934
857.238	40.6011
860.13	38.3267
863.023	90.5083
865.916	70.6934
868.808	38.7925
871.701	24.9292
874.594	45.4277
877.487	43.3511
880.379	51.8198
883.272	11.9453
886.165	31.8457
889.057	25.3726
891.95	54.0972
894.843	53.8398
897.736	23.6431
900.628	101.964
903.521	56.2915
906.414	82.2505
909.306	95.7334
912.199	17.085
915.092	41.4082
917.984	85.3735
920.877	17.4639
923.77	54.4424
926.663	55.3599
929.555	58.3862
932.448	97.2837
935.341	69.0986
938.233	69.7476
941.126	27.5903
944.019	12.0796
946.911	14.6597
949.804	116.082
952.697	21.4888
955.589	80.3413
958.482	99.1582
961.375	123.871
964.268	137.83
967.16	170.798
970.053	209.707
972.946	300.26
975.838	456.214
978.731	660.743
981.624	883.669
984.516	1213.11
987.409	1816.15
990.302	2298.19
993.194	1437.76
996.087	606.868
998.98	380.087
1001.87	271.008
1004.76	363.91
1007.66	454.176
1010.55	284.801
1013.44	211.025
1016.34	112.019
1019.23	74.1289
1022.12	69.1875
1025.01	52.4858
1027.91	71.2456
1030.8	185.239
1033.69	92.3823
1036.59	147.061
1039.48	219.769
1042.37	101.665
1045.26	128.863
1048.16	115.109
1051.05	84.7363
1053.94	94.8062
1056.83	161.721
1059.73	67.5234
1062.62	75.9536
1065.51	97.2412
1068.4	50.5591
1071.3	93.5303
1074.19	92.8652
1077.08	114.867
1079.97	53.9443
1082.87	40.8838
1085.76	1.05859
1088.65	44.5073
1091.55	15.6279
1094.44	30.374
1097.33	11.667
1100.22	8.68408
1103.12	16.4868
1106.01	9.66162
1108.9	5.85498
1111.8	82.6152
1114.69	20.041
1117.58	27.8735
1120.47	43.2324
1123.37	148.284
1126.26	256.216
1129.15	303.929
1132.04	601.125
1134.94	783.875
1137.83	1059.49
1140.72	1435.82
1143.62	1836.81
1146.51	2377.59
1149.4	2728.35
1152.29	2994.61
1155.19	2878.91
1158.08	2467.31
1160.97	1954.3
1163.86	1689.1
1166.76	1756.62
1169.65	2131.07
1172.54	2525.66
1175.43	3056.61
1178.33	3269.53
1181.22	3050.77
1184.11	2546.08
1187.01	2031.87
1189.9	1585.35
1192.79	1192.34
1195.68	1033.11
1198.58	708.163
1201.47	679.433
1204.36	478.817
1207.25	345.422
1210.15	605.972
1213.04	647.002
1215.93	615.071
1218.83	706.447
1221.72	816.055
1224.61	753.081
1227.5	767.655
1230.4	691.454
1233.29	615.548
1236.18	378.28
1239.07	334.123
1241.97	304.412
1244.86	294.945
1247.75	232.817
1250.64	197.512
1253.54	56.3823
1256.43	2.49512
1259.32	34.2822
1262.21	23.022
1265.11	4.33691
1268	66.9356
1270.89	19.0308
