Measurement: Raman, 780 nm, unoriented, Raman Data Processed
Mineral: Rouaite
Rruff sample: R080086
Ideal chemistry: Cu^2+^_2_N^5+^O_3_(OH)_3_
Locality: Jachymov, Erzgebirge (Bohemia), Czech Republic
Source: William W. Pinch
Description: Green sharp thin plates, it should be noted that gerhardtite is dimorphous with Rouaite and may be confused with it.
Raman shift (cm-1)	intensity
151.342	0
154.234	0.392008
157.127	0.959082
160.02	0.467981
162.912	0.753332
165.805	0.947401
168.698	1.28218
171.591	1.06718
174.483	1.53295
177.376	1.39372
180.269	1.06894
183.161	0.541145
186.054	0.697571
188.947	0.202955
191.839	0.187265
194.732	0.088705
197.625	0.052166
200.518	0.056798
203.41	0.538364
206.303	0.407831
209.196	0.442469
212.088	0.630452
214.981	0.552255
217.874	0.904325
220.766	1.02808
223.659	1.11886
226.552	1.2649
229.445	1.14892
232.337	1.83554
235.23	2.32977
238.123	1.51645
241.015	2.39705
243.908	2.603
246.801	2.60525
249.694	2.71267
252.586	2.82976
255.479	2.78802
258.372	2.48887
261.264	1.83063
264.157	1.49229
267.05	1.65099
269.942	1.20953
272.835	1.3052
275.728	0.465903
278.62	0.251484
281.513	0.289037
284.406	0.025002
287.299	0.080419
290.191	0.111442
293.084	0.441893
295.977	0.400467
298.869	0.524326
301.762	0.011038
304.655	0.041275
307.548	0.049372
310.44	0.262968
313.333	0.351178
316.226	0.27718
319.118	0.878962
322.011	0.492462
324.904	1.0224
327.796	0.906479
330.689	0.525567
333.582	0.252442
336.474	0.45074
339.367	0.831738
342.26	0.479099
345.152	0.233339
348.045	0.492001
350.938	0.584596
353.831	0.118552
356.723	0.423828
359.616	0.241514
362.509	0.418692
365.401	0.174188
368.294	0.018671
371.187	0.258061
374.079	0.536181
376.972	0.283072
379.865	0.689884
382.758	0.790576
385.65	0.436522
388.543	0.950336
391.436	1.26969
394.328	1.43385
397.221	1.72361
400.114	2.03946
403.007	1.99491
405.899	1.60555
408.792	1.2401
411.685	1.32392
414.577	0.30501
417.47	0.211821
420.363	0.406925
423.255	0.554926
426.148	0.115524
429.041	0.435967
431.933	0.233756
434.826	0.290905
437.719	0.227849
440.612	0.321561
443.504	0.669433
446.397	0.450628
449.29	0.413809
452.182	0.74005
455.075	0.116505
457.968	0.450441
460.861	0.403925
463.753	0.065139
466.646	0.196127
469.539	0.072554
472.431	0.232499
475.324	0.544422
478.217	0.201748
481.109	0.061994
484.002	0.334538
486.895	0.63079
489.788	0.674555
492.68	0.160583
495.573	0.310041
498.466	0.444075
501.358	0.259393
504.251	0.67394
507.144	0.462826
510.036	0.465097
512.929	0.337239
515.822	0.107004
518.715	0.508785
521.607	0.359619
524.5	0.478233
527.393	0.288265
530.285	0.474639
533.178	0.033763
536.071	0.187988
538.963	0.547413
541.856	0.416041
544.749	0.256263
547.641	0.111477
550.534	0.070232
553.427	0.12691
556.32	0.450374
559.212	0.258595
562.105	0.015738
564.998	0.264615
567.89	0.051955
570.783	0.07927
573.676	0.35714
576.568	0.317056
579.461	0.266929
582.354	0.298339
585.247	0.175959
588.139	0.07456
591.032	0.291376
593.925	0.154656
596.817	0.228791
599.71	0.516726
602.603	0.065618
605.495	0.529434
608.388	0.192927
611.281	0.378682
614.174	0.823402
617.066	0.332164
619.959	0.536929
622.852	0.554662
625.744	0.702388
628.637	0.728646
631.53	0.495584
634.423	0.380435
637.315	0.284296
640.208	0.378018
643.101	0.48949
645.993	0.036378
648.886	0.297297
651.779	0.144675
654.671	0.054598
657.564	0.060053
660.457	0.251627
663.35	0.285954
666.242	0.420439
669.135	0.588508
672.028	0.328376
674.92	0.296124
677.813	0.777815
680.706	0.107885
683.598	0.301623
686.491	0.86783
689.384	0.3183
692.277	0.488173
695.169	0.079083
698.062	0.50065
700.955	0.87739
703.847	0.922828
706.74	0.801502
709.633	1.33837
712.525	1.22436
715.418	1.3385
718.311	1.76815
721.203	1.75712
724.096	0.724638
726.989	0.654016
729.882	0.503304
732.774	0.247612
735.667	0.598075
738.56	0.747553
741.452	0.305676
744.345	0.224371
747.238	0.312861
750.13	0.455093
753.023	0.280522
755.916	0.386582
758.809	0.3195
761.701	0.318834
764.594	0.151676
767.487	0.53457
770.379	0.033076
773.272	0.458177
776.165	0.395343
779.058	0.038693
781.95	0.170052
784.843	0.011961
787.736	0.301406
790.628	0.274015
793.521	0.02095
796.414	0.521557
799.306	0.232893
802.199	0.690439
805.092	0.230394
807.985	0.78694
810.877	0.588318
813.77	0.792171
816.663	0.690699
819.555	0.316966
822.448	0.907779
825.341	0.696631
828.233	0.632171
831.126	1.00418
834.019	1.11215
836.912	1.06785
839.804	0.944766
842.697	1.22715
845.59	1.18455
848.482	0.852259
851.375	1.18427
854.268	0.783399
857.16	1.17413
860.053	0.498837
862.946	0.744164
865.838	0.578671
868.731	0.757329
871.624	0.572621
874.517	0.777013
877.409	0.252729
880.302	0.866253
883.195	0.358048
886.087	0.604432
888.98	0.466948
891.873	0.754133
894.765	0.397901
897.658	0.52871
900.551	0.060675
903.444	0.084853
906.336	0.756722
909.229	0.300816
912.122	0.403088
915.014	0.289347
917.907	0.129488
920.8	0.127007
923.692	0.060048
926.585	0.205417
929.478	0.333033
932.37	0.01298
935.263	0.040347
938.156	0.034525
941.049	0.120036
943.941	0.090743
946.834	0.016368
949.727	0.017039
952.619	0.24558
955.512	0.448181
958.405	0.125962
961.298	0.08277
964.19	0.222214
967.083	0.616698
969.976	0.030621
972.868	0.533226
975.761	0.358978
978.654	0.422818
981.546	0.276096
984.439	0.258937
987.332	0.158217
990.225	0.160757
993.117	0.524749
996.01	0.061666
998.903	0.224975
1001.79	0.284848
1004.69	0.003537
1007.58	0.522954
1010.47	0.590818
1013.37	0.351866
1016.26	0.592641
1019.15	0.699091
1022.04	0.505892
1024.94	0.740634
1027.83	1.46217
1030.72	1.96144
1033.62	3.53985
1036.51	5.13279
1039.4	6.96215
1042.29	9.16543
1045.19	9.10068
1048.08	5.59347
1050.97	2.52623
1053.86	1.42857
1056.76	0.737844
1059.65	1.01374
1062.54	0.405878
1065.43	0.471535
1068.33	0.601822
1071.22	0.590994
1074.11	0.525256
1077.01	0.404831
1079.9	0.576424
1082.79	0.410102
1085.68	0.545727
1088.58	0.29005
1091.47	0.363109
1094.36	0.401981
1097.25	0.585829
1100.15	0.408951
1103.04	0.378831
1105.93	0.816571
1108.83	0.046179
1111.72	0.582308
1114.61	0.484603
1117.5	0.328815
1120.4	0.475783
1123.29	0.522202
1126.18	0.43835
1129.07	0.21343
1131.97	0.449023
1134.86	0.5412
1137.75	0.139947
1140.64	0.308668
1143.54	0.973282
1146.43	0.724621
1149.32	0.671721
1152.22	0.304249
1155.11	0.641463
1158	0.420759
1160.89	0.292913
1163.79	0.423592
1166.68	0.526853
1169.57	0.390946
1172.46	0.355498
1175.36	0.113933
1178.25	0.427691
1181.14	0.269201
1184.04	0.00044
1186.93	0.220059
1189.82	0.168918
1192.71	0.067188
1195.61	0.81201
1198.5	0.770855
1201.39	0.283533
1204.28	0.49819
1207.18	0.05428
1210.07	0.785539
1212.96	0.016636
1215.86	0.348835
1218.75	0.908369
1221.64	0.941172
1224.53	0.296855
1227.43	0.018254
1230.32	0.075151
1233.21	0.389053
1236.1	0.468657
1239	0.325905
1241.89	0.712634
1244.78	0.769318
1247.67	0.665181
1250.57	0.101565
1253.46	0.52482
1256.35	0.7906
1259.25	0.368547
1262.14	0.124215
1265.03	0.476423
1267.92	0.884193
1270.82	0.69855
1273.71	0.476274
1276.6	0.277253
1279.49	0.556968
1282.39	0.376625
1285.28	0.001982
