Measurement: Raman, 780 nm, unoriented, Raman Data Processed
Mineral: Ruitenbergite
Rruff sample: R110152
Ideal chemistry: Ca_9_B_26_O_34_(OH)_24_Cl_4_13H_2_O
Locality: Potash Corporation of Saskatchewan mine, Penobsquis, Kings County, New Brunswick, Canada
Source: Donald M Doell and Brian Roulston
Description: Pale yellow granular, extracted by dissolving the matrix of sylvite/halite, associated with strontioginorite R110149, howlite R110150, volkovskite R110151, congolite R110153, and hilgardite
Raman shift (cm-1)	intensity
195.259	0
198.151	3.95203
201.044	2.30896
203.937	0.931763
206.829	8.79248
209.722	2.00854
212.615	7.68799
215.507	3.39087
218.4	4.54639
221.293	10.639
224.186	8.04602
227.078	10.264
229.971	3.93249
232.864	8.43933
235.756	12.9545
238.649	25.483
241.542	17.1594
244.435	21.1296
247.327	20.6368
250.22	20.7375
253.113	10.2881
256.005	3.56079
258.898	5.41858
261.791	6.47974
264.683	6.98962
267.576	8.55322
270.469	9.17664
273.361	9.19287
276.254	11.9424
279.147	17.4639
282.04	17.8243
284.932	14.0092
287.825	22.4331
290.718	34.1719
293.61	35.509
296.503	27.1071
299.396	27.6337
302.288	10.6477
305.181	1.61853
308.074	0.509155
310.967	2.58874
313.859	5.32861
316.752	7.17017
319.645	0.295898
322.537	2.8418
325.43	4.91565
328.323	0.856201
331.216	2.7721
334.108	5.23462
337.001	21.4573
339.894	16.9784
342.786	21.7335
345.679	34.9678
348.572	42.6993
351.464	48.6843
354.357	52.3716
357.25	56.7253
360.142	52.6376
363.035	48.4758
365.928	46.0413
368.821	42.3716
371.713	39.2618
374.606	25.0087
377.499	18.9314
380.391	15.6553
383.284	12.6532
386.177	10.5983
389.07	16.7653
391.962	11.0759
394.855	13.3427
397.748	13.3181
400.64	23.1287
403.533	26.6484
406.426	41.0404
409.318	50.3466
412.211	53.0846
415.104	38.6189
417.997	21.2101
420.889	14.6737
423.782	6.00244
426.675	0.933105
429.567	6.62085
432.46	7.92175
435.353	3.901
438.245	3.44385
441.138	2.7356
444.031	1.76794
446.923	7.06323
449.816	7.52612
452.709	12.7302
455.602	12.0846
458.494	10.0237
461.387	10.9401
464.28	17.6587
467.172	11.9485
470.065	19.4556
472.958	26.8241
475.851	30.7894
478.743	28.9836
481.636	30.1361
484.529	37.9188
487.421	31.149
490.314	35.5767
493.207	36.4978
496.099	45.9686
498.992	45.2957
501.885	44.6791
504.777	49.3921
507.67	49.7251
510.563	54.5551
513.456	51.142
516.348	62.3956
519.241	54.4155
522.134	52.2151
525.026	38.1148
527.919	36.8124
530.812	27.9902
533.705	17.7002
536.597	14.3933
539.49	8.60181
542.383	0.0896
545.275	3.09802
548.168	0.439819
551.061	4.89929
553.953	3.12732
556.846	5.12988
559.739	2.13318
562.631	4.30615
565.524	0.285889
568.417	7.63415
571.31	1.59668
574.202	6.92944
577.095	2.96692
579.988	4.8269
582.88	8.1355
585.773	2.7605
588.666	4.97205
591.558	0.821167
594.451	3.78418
597.344	7.86011
600.237	5.45471
603.129	20.8455
606.022	23.5398
608.915	16.2194
611.807	23.4445
614.7	12.0016
617.593	8.30432
620.486	3.52087
623.378	1.13696
626.271	0.005005
629.164	0.682129
632.056	1.37573
634.949	3.35571
637.842	2.81751
640.734	3.83777
643.627	5.00586
646.52	9.15747
649.413	17.5632
652.305	29.5497
655.198	38.2275
658.091	53.2404
660.983	72.8799
663.876	92.3579
666.769	116.481
669.661	129.896
672.554	130.905
675.447	135.251
678.34	132.044
681.232	131.084
684.125	124.493
687.018	101.529
689.91	89.6914
692.803	76.1886
695.696	71.5266
698.588	61.1588
701.481	64.1433
704.374	66.0931
707.266	69.957
710.159	67.9152
713.052	60.8225
715.945	48.686
718.837	50.1653
721.73	41.8406
724.623	45.1023
727.515	45.9301
730.408	54.4418
733.301	44.2229
736.193	30.8379
739.086	22.1689
741.979	20.4144
744.872	18.2241
747.764	20.6698
750.657	17.2875
753.55	3.0387
756.442	5.87817
759.335	2.52075
762.228	4.09692
765.12	3.00671
768.013	17.0679
770.906	6.45325
773.799	4.20227
776.691	5.4259
779.584	5.18738
782.477	0.133179
785.369	6.5647
788.262	4.43555
791.155	4.7915
794.048	18.4741
796.94	3.24365
799.833	1.97595
802.726	3.32642
805.618	21.0768
808.511	25.0763
811.404	36.277
814.296	34.1871
817.189	32.2811
820.082	30.079
822.975	32.6136
825.867	19.6058
828.76	13.3692
831.653	12.9343
834.545	7.0003
837.438	10.5371
840.331	7.86731
843.223	4.90826
846.116	3.28223
849.009	6.32349
851.902	13.8205
854.794	9.9455
857.687	13.1426
860.58	9.67139
863.472	12.9818
866.365	5.91565
869.258	0.250793
872.15	7.43414
875.043	6.67835
877.936	0.546509
880.829	0.066711
883.721	0.503113
886.614	3.53845
889.507	0.407471
892.399	0.094299
895.292	3.47516
898.185	2.58374
901.077	3.87885
903.97	1.30591
906.863	15.3117
909.756	12.2958
912.648	15.7401
915.541	16.4976
918.434	13.3377
921.326	17.1306
924.219	7.97272
927.112	10.6769
930.005	9.46185
932.897	19.8311
935.79	5.78033
938.683	6.5307
941.575	4.89618
944.468	4.45398
947.361	5.85687
950.253	3.54449
953.146	5.05481
956.039	5.29584
958.932	0.720825
961.824	7.13324
964.717	1.69373
967.61	4.6543
970.502	3.10187
973.395	0.417664
976.288	2.26489
979.18	3.64117
982.073	5.48096
984.966	9.83997
987.859	0.677856
990.751	6.47559
993.644	2.60083
996.537	3.40198
999.429	1.59473
1002.32	2.05835
1005.22	2.97742
1008.11	1.10107
1011	0.462891
1013.89	4.88672
1016.78	15.3832
1019.68	2.13818
1022.57	2.62683
1025.46	1.8999
1028.36	0.477783
1031.25	12.8428
1034.14	5.57764
1037.03	20.4546
1039.93	8.98914
1042.82	8.93103
1045.71	7.62195
1048.61	8.19348
1051.5	4.7572
1054.39	7.64026
1057.28	15.4015
1060.18	10.8755
1063.07	15.4292
1065.96	13.9543
1068.85	14.7505
1071.75	11.1739
1074.64	10.7174
1077.53	12.5275
1080.42	12.1842
1083.32	16.5026
1086.21	28.4801
1089.1	26.7371
1092	14.4058
1094.89	11.4962
1097.78	10.4142
1100.67	5.77014
1103.57	15.0392
1106.46	7.35877
1109.35	28.5516
1112.24	12.9276
1115.14	0.056885
1118.03	6.89258
1120.92	2.1449
1123.82	0.098389
1126.71	0.724854
1129.6	5.3009
1132.49	2.56397
1135.39	0.442993
1138.28	2.66223
1141.17	9.25183
1144.06	4.41064
1146.96	16.2669
1149.85	3.74255
1152.74	10.5939
1155.63	16.8356
1158.53	5.47156
1161.42	2.31848
1164.31	4.58081
1167.21	5.37256
1170.1	8.1792
1172.99	7.31641
1175.88	6.65283
1178.78	13.5149
1181.67	24.3231
1184.56	4.06055
1187.45	6.71472
1190.35	16.2938
1193.24	9.4364
1196.13	11.0593
1199.03	12.9822
1201.92	6.83606
1204.81	4.60486
1207.7	3.81897
1210.6	5.47339
1213.49	2.02527
1216.38	2.80579
1219.27	3.09827
1222.17	1.73206
1225.06	2.43665
1227.95	4.37305
1230.85	0.830444
1233.74	3.23291
1236.63	11.6207
1239.52	1.06421
1242.42	2.22192
1245.31	3.03601
1248.2	7.65442
1251.09	1.5033
1253.99	2.04224
1256.88	4.23254
1259.77	10.8098
1262.66	15.0951
1265.56	9.15344
1268.45	12.7595
1271.34	5.51111
1274.24	3.99243
1277.13	3.68677
1280.02	0.64978
1282.91	0.103516
