Measurement: Raman, 532 nm, unoriented, Raman Data Processed
Mineral: Ruitenbergite
Rruff sample: R110152
Ideal chemistry: Ca_9_B_26_O_34_(OH)_24_Cl_4_13H_2_O
Locality: Potash Corporation of Saskatchewan mine, Penobsquis, Kings County, New Brunswick, Canada
Source: Donald M Doell and Brian Roulston
Description: Pale yellow granular, extracted by dissolving the matrix of sylvite/halite, associated with strontioginorite R110149, howlite R110150, volkovskite R110151, congolite R110153, and hilgardite
Raman shift (cm-1)	intensity
196.076	0
198.968	2.71411
201.861	9.34473
204.754	22.7904
207.647	24.2082
210.539	28.9334
213.432	29.6708
216.325	27.5631
219.217	45.1693
222.11	76.3795
225.003	107.258
227.895	48.0949
230.788	36.0727
233.681	34.4788
236.573	48.1484
239.466	47.5573
242.359	52.8801
245.252	65.3042
248.144	39.3391
251.037	26.4104
253.93	11.5664
256.822	8.50647
259.715	14.8551
262.608	4.60706
265.5	4.71338
268.393	2.89771
271.286	3.56226
274.179	13.0743
277.071	16.8569
279.964	18.2711
282.857	22.0598
285.75	24.2687
288.642	39.6864
291.535	54.1576
294.428	51.5906
297.32	41.9453
300.213	32.9717
303.106	22.2686
305.998	11.5612
308.891	0.019409
311.784	3.27612
314.676	0.250122
317.569	0.162476
320.462	3.26038
323.355	4.96729
326.247	0.910889
329.14	8.0376
332.033	18.7208
334.925	28.412
337.818	36.1435
340.711	52.4853
343.603	59.6805
346.496	75.3554
349.389	90.6486
352.281	110.869
355.174	126.812
358.067	125.199
360.96	116.882
363.852	100.698
366.745	87.1317
369.638	76.8047
372.53	67.1819
375.423	58.2398
378.316	44.0967
381.209	32.3826
384.101	36.1781
386.994	31.5079
389.887	31.0167
392.779	34.3296
395.672	30.3932
398.565	49.5963
401.457	64.4105
404.35	78.675
407.243	99.8887
410.135	96.043
413.028	79.1768
415.921	55.2485
418.814	25.9252
421.706	13.6459
424.599	5.24292
427.492	5.26733
430.384	6.54272
433.277	2.06873
436.17	1.10657
439.062	3.55396
441.955	5.77576
444.848	6.82214
447.741	1.31811
450.633	8.52942
453.526	0.832764
456.419	9.51184
459.311	10.9603
462.204	12.7235
465.097	18.2327
467.99	15.2632
470.882	23.5526
473.775	29.7909
476.668	31.2812
479.56	36.099
482.453	41.1981
485.346	52.8798
488.238	57.0846
491.131	62.3496
494.024	83.4179
496.916	93.0635
499.809	96.994
502.702	92.9409
505.595	93.783
508.487	92.5789
511.38	96.4608
514.273	86.1129
517.165	81.684
520.058	75.0955
522.951	69.6171
525.844	56.348
528.736	43.385
531.629	32.5289
534.522	18.1727
537.414	9.85388
540.307	14.3739
543.2	3.30542
546.092	6.20496
548.985	4.45288
551.878	6.87378
554.771	0.587769
557.663	2.08435
560.556	3.55798
563.449	2.14575
566.341	2.03857
569.234	2.96753
572.127	1.56152
575.019	3.15906
577.912	10.4305
580.805	11.7727
583.698	6.76965
586.59	8.36621
589.483	7.62915
592.376	11.5134
595.268	18.5107
598.161	24.4676
601.054	22.2366
603.946	29.9669
606.839	30.041
609.732	34.933
612.625	38.5585
615.517	22.464
618.41	15.488
621.303	6.55286
624.195	2.24915
627.088	1.0553
629.981	8.32776
632.873	2.88892
635.766	0.080811
638.659	4.82007
641.552	7.05042
644.444	14.1942
647.337	28.4189
650.23	42.244
653.122	62.5083
656.015	86.5105
658.908	115.579
661.8	143.681
664.693	181.63
667.586	220.846
670.479	239.831
673.371	230.868
676.264	229.209
679.157	221.656
682.049	210.566
684.942	189.1
687.835	166.057
690.727	146.393
693.62	129.716
696.513	121.901
699.405	119.664
702.298	121.353
705.191	127.212
708.084	125.914
710.976	118.309
713.869	100.891
716.762	84.0814
719.654	66.9813
722.547	59.5073
725.44	62.0057
728.332	59.8138
731.225	48.4664
734.118	41.3145
737.011	26.4536
739.903	28.5256
742.796	19.8278
745.689	16.6228
748.581	4.24268
751.474	3.49768
754.367	7.06763
757.26	0.971802
760.152	8.84326
763.045	2.47827
765.938	10.442
768.83	11.706
771.723	17.4416
774.616	20.6539
777.508	15.5323
780.401	9.12915
783.294	0.599731
786.187	1.11475
789.079	7.2467
791.972	1.26587
794.865	5.31567
797.757	1.29895
800.65	9.45325
803.543	16.7573
806.435	35.3121
809.328	55.8845
812.221	47.1375
815.114	38.9252
818.006	35.3151
820.899	35.0042
823.792	26.2235
826.684	19.6514
829.577	13.3694
832.47	14.021
835.362	11.1545
838.255	9.52441
841.148	12.1206
844.04	20.356
846.933	33.6597
849.826	42.2511
852.719	63.4789
855.611	78.2277
858.504	75.1724
861.397	65.9875
864.289	44.8695
867.182	24.0873
870.075	12.0941
872.967	10.417
875.86	7.86011
878.753	1.66174
881.646	0.248657
884.538	6.43445
887.431	9.89832
890.324	15.2809
893.216	11.4669
896.109	13.927
899.002	15.6776
901.894	16.1116
904.787	23.9545
907.68	31.9912
910.573	36.9894
913.465	41.3366
916.358	39.5405
919.251	43.037
922.143	36.1265
925.036	25.8903
927.929	20.5356
930.822	12.9202
933.714	7.12878
936.607	0.37561
939.5	0.291382
942.392	6.37402
945.285	4.19189
948.178	0.977417
951.07	9.83008
953.963	13.6989
956.856	7.27942
959.749	5.45117
962.641	12.8114
965.534	15.1676
968.427	16.9912
971.319	9.68469
974.212	3.61731
977.105	8.94128
979.997	9.78638
982.89	10.4352
985.783	6.45703
988.676	9.48816
991.568	12.4037
994.461	5.48828
997.354	4.98657
1000.25	3.12439
1003.14	4.14441
1006.03	9.41577
1008.92	5.83252
1011.82	3.91675
1014.71	4.3656
1017.6	3.2948
1020.5	6.21045
1023.39	3.46472
1026.28	4.90503
1029.17	11.9581
1032.07	15.8492
1034.96	19.7252
1037.85	21.4753
1040.74	18.5089
1043.64	11.378
1046.53	13.6429
1049.42	12.5383
1052.32	9.93884
1055.21	9.6665
1058.1	11.8033
1060.99	9.125
1063.89	7.07617
1066.78	0.12207
1069.67	4.19202
1072.56	2.67712
1075.46	5.76184
1078.35	2.02271
1081.24	5.34985
1084.13	9.9209
1087.03	11.6677
1089.92	12.218
1092.81	23.1396
1095.7	25.7267
1098.6	35.6261
1101.49	45.0781
1104.38	37.8557
1107.28	45.8404
1110.17	46.5836
1113.06	50.5542
1115.95	45.7942
1118.85	36.6538
1121.74	30.2521
1124.63	17.1985
1127.53	16.2579
1130.42	6.12024
1133.31	5.87524
1136.2	0.877197
1139.1	11.3738
1141.99	14.512
1144.88	11.3992
1147.77	17.567
1150.67	13.072
1153.56	15.9348
1156.45	9.77942
1159.35	10.7617
1162.24	13.3502
1165.13	16.4795
1168.02	5.75171
1170.92	5.78137
1173.81	6.35644
1176.7	9.27307
1179.59	7.22546
1182.49	9.85681
1185.38	8.03418
1188.27	10.5769
1191.16	7.13415
1194.06	2.59509
1196.95	3.69385
1199.84	1.65125
1202.73	0.988281
1205.63	16.4908
1208.52	12.1816
1211.41	10.0563
1214.31	18.1364
1217.2	8.55408
1220.09	1.82056
1222.98	4.3501
1225.88	6.8468
1228.77	3.54614
1231.66	8.74219
1234.56	2.50879
1237.45	3.51086
1240.34	5.15039
1243.23	10.3816
1246.13	8.6582
1249.02	11.4781
1251.91	14.4416
1254.8	15.8309
1257.7	17.8434
1260.59	19.0834
1263.48	32.6146
1266.38	19.8403
1269.27	24.2098
1272.16	14.4105
1275.05	14.8691
1277.95	11.936
1280.84	7.77405
1283.73	4.98462
1286.62	5.67737
1289.52	7.32227
1292.41	5.36658
1295.3	17.2752
1298.19	14.3892
1301.09	2.75
