Measurement: Raman, 780 nm, unoriented, Raman Data Processed
Mineral: Rutile
Rruff sample: R040049
Ideal chemistry: Ti^4+^O_2_
Locality: Graves Mountain, Lincoln County, Georgia, USA
Source: University of Arizona Mineral Museum
Description: Reddish-black fragments
Measured chemistry: (Ti_1.00_Fe_0.01_)O_2_
Raman shift (cm-1)	intensity
119.041	0
121.934	14.2363
124.827	209.34
127.719	431.106
130.612	934.576
133.505	1233.66
136.398	1639.48
139.29	2098.3
142.183	3782.18
145.076	3100.92
147.968	1478.56
150.861	776.529
153.754	405.182
156.646	190.789
159.539	101.272
162.432	49.7832
165.325	116.481
168.217	114.504
171.11	95.5215
174.003	196.178
176.895	634.988
179.788	979.113
182.681	1521.01
185.573	2064.08
188.466	2578.22
191.359	3185.95
194.251	3586.45
197.144	4311.77
200.037	4574.62
202.93	5298.17
205.822	5728.41
208.715	6261.42
211.608	6743.29
214.5	7245.92
217.393	7554.73
220.286	7824.91
223.179	8105.23
226.071	8478.21
228.964	8612.92
231.857	8630.28
234.749	8749.66
237.642	8633.5
240.535	8388.85
243.427	8036.43
246.32	7679.29
249.213	7209.68
252.106	6772.96
254.998	6355.3
257.891	5752.06
260.784	5407.67
263.676	4900.6
266.569	4519.02
269.462	3984.22
272.354	3658.38
275.247	3397.39
278.14	2944.08
281.033	2465.46
283.925	2010.32
286.818	1572.55
289.711	1114.61
292.603	778.268
295.496	517.006
298.389	248.742
301.281	11.8418
304.174	22.2285
307.067	158.264
309.959	14.0703
312.852	78.8965
315.745	9.28711
318.638	25.0898
321.53	31.123
324.423	3.66992
327.316	15.248
330.208	65.4394
333.101	140.473
335.994	68.0703
338.887	17.4219
341.779	38.1738
344.672	7.08789
347.565	10.5195
350.457	170.443
353.35	217.103
356.243	350.428
359.135	368.812
362.028	247.338
364.921	201.648
367.813	34.5898
370.706	195.652
373.599	113.938
376.492	188.066
379.384	365.769
382.277	482.693
385.17	856.635
388.062	1152.77
390.955	1534.86
393.848	2005.54
396.74	2598.11
399.633	3339.88
402.526	4344.75
405.419	5502.08
408.311	6679.46
411.204	8395.47
414.097	10149.4
416.989	12336.7
419.882	14966.8
422.775	17423.7
425.668	20321.3
428.56	23540.5
431.453	26961.1
434.346	30182.6
437.238	33017.8
440.131	35653.1
443.024	37243.5
445.916	37476.4
448.809	36539.2
451.702	33948.1
454.594	30121.4
457.487	25796.6
460.38	21077.3
463.273	16774.4
466.165	13187.6
469.058	10165.6
471.951	7619.92
474.843	5713.01
477.736	4298.49
480.629	3092.25
483.522	2247.06
486.414	1610.72
489.307	1103.19
492.2	648.338
495.092	444.108
497.985	291.37
500.878	59.999
503.77	10.7275
506.663	0.871094
509.556	30.5596
512.448	9.79688
515.341	37.2969
518.234	1.26367
521.127	50.0918
524.019	62.7051
526.912	84.9307
529.805	87.7969
532.697	122.53
535.59	119.168
538.483	150.461
541.375	154.193
544.268	18.6797
547.161	69.2549
550.054	143.561
552.946	256.081
555.839	467.364
558.732	640.5
561.624	841.365
564.517	1178.85
567.41	1618.07
570.303	2081.71
573.195	2511.27
576.088	3088.61
578.981	3620.34
581.873	4449.42
584.766	5213.43
587.659	6039.2
590.551	7043.06
593.444	8077.85
596.337	9259.72
599.23	10576.9
602.122	11720
605.015	12754.5
607.908	13503.6
610.8	13871.2
613.693	13549.2
616.586	12889.8
619.478	11635.4
622.371	10090.7
625.264	8593.59
628.157	7323.71
631.049	6103.55
633.942	4975.35
636.835	3991.13
639.727	3194.68
642.62	2550.59
645.513	1911.27
648.405	1520.75
651.298	1175.51
654.191	975.47
657.083	675.179
659.976	622.578
662.869	408.799
665.762	277.488
668.654	285.319
671.547	456.458
674.44	261.792
677.332	248.846
680.225	189.157
683.118	233.515
686.01	286.091
688.903	306.617
691.796	393.069
694.689	371.494
697.581	411.07
700.474	472.93
703.367	392.014
706.259	408.136
709.152	368.179
712.045	345.54
714.938	275.446
717.83	265.558
720.723	133.891
723.616	127.323
726.508	7.77051
729.401	56.5137
732.294	30.1143
735.186	14.8574
738.079	87.9561
740.972	39.2461
743.865	77.7217
746.757	92.3887
749.65	19.0918
752.543	19.2793
755.435	23.667
758.328	34.3447
761.221	129.85
764.113	116.538
767.006	218.481
769.899	291.993
772.792	327.606
775.684	437.69
778.577	605.087
781.47	562.305
784.362	773.131
787.255	822.293
790.148	877.331
793.04	829.439
795.933	888.689
798.826	981.595
801.718	1008.11
804.611	885.638
807.504	899.518
810.397	876.322
813.289	906.254
816.182	777.131
819.075	724.964
821.967	686.724
824.86	720.82
827.753	658.208
830.645	491.721
833.538	492.903
836.431	454.117
839.323	411.519
842.216	354.623
845.109	329.594
848.002	150.546
850.894	198.063
853.787	206.741
856.68	113.185
859.572	130.64
862.465	70.2842
865.358	66.7295
868.25	23.9927
871.143	35.937
874.036	6.24902
876.929	25.2412
879.821	35.1182
882.714	12.9336
885.607	35.9692
888.5	29.7695
891.392	31.189
894.285	52.6645
897.178	32.2388
900.07	52.189
902.963	54.751
905.856	61.812
908.748	24.7373
911.641	57.6103
914.534	71.8369
917.427	92.2109
920.319	40.5693
923.212	82.7441
926.105	42.2866
928.997	59.3101
931.89	93.2778
934.783	90.2827
937.675	9.625
940.568	34.9263
943.461	32.6709
946.354	31.9658
949.246	14.9951
952.139	90.7866
955.032	63.6611
957.924	93.3921
960.817	46.1909
963.71	51.6352
966.602	20.2651
969.495	4.30859
972.388	14.5781
975.28	56.2129
978.173	15.417
981.066	5.94385
983.959	17.1768
986.851	28.708
989.744	2.37549
992.637	43.0464
995.529	57.5757
998.422	39.6987
1001.32	13.6597
1004.21	12.6826
1007.1	70.2456
1009.99	4.68799
1012.89	57.1328
1015.78	16.915
1018.67	24.8594
1021.56	79.9292
1024.46	82.521
1027.35	78.4219
1030.24	57.2588
1033.13	65.3477
1036.03	46.3188
1038.92	63.6714
1041.81	24.4702
1044.7	46.9248
1047.6	35.8789
1050.49	25.1992
1053.38	26.2109
1056.28	71.6909
1059.17	81.0542
1062.06	90.7949
1064.95	66.104
1067.85	158.746
1070.74	36.2622
1073.63	36.148
1076.53	12.2695
1079.42	49.5552
1082.31	50.144
1085.2	21.1577
1088.1	71.1191
1090.99	46.9053
1093.88	63.0293
1096.77	31.0264
1099.67	15.1802
1102.56	11.1597
1105.45	8.56006
1108.35	46.7339
1111.24	36.8877
1114.13	34.21
1117.02	44.3364
1119.91	42.5855
1122.81	56.3897
1125.7	12.3227
1128.59	58.6377
1131.49	27.208
1134.38	21.3052
1137.27	63.8037
1140.16	32.9648
1143.06	104.677
1145.95	106.385
1148.84	107.28
1151.73	80.1133
1154.63	31.0957
1157.52	95.3086
1160.41	92.522
1163.31	51.6348
1166.2	70.1655
1169.09	55.0151
1171.98	81.2456
1174.88	145.758
1177.77	134.469
1180.66	50.7065
1183.56	92.9062
1186.45	44.02
1189.34	26.7207
1192.23	60.7642
1195.13	93.8237
1198.02	104.607
1200.91	94.0894
1203.8	91.3535
1206.7	74.2734
1209.59	68.8345
1212.48	2.23291
1215.38	64.1562
1218.27	6.97461
1221.16	127.113
1224.05	44.9004
1226.94	68.1055
1229.84	70.6963
1232.73	59.3623
1235.62	86.5371
1238.52	114.541
1241.41	55.9985
1244.3	86.7451
1247.19	78.9224
1250.09	82.5293
1252.98	26.2207
1255.87	38.102
1258.77	14.8613
1261.66	76.6611
1264.55	61.3398
1267.44	10.3735
1270.34	0
