Measurement: Raman, 532 nm, unoriented, Raman Data Processed
Mineral: Rutile
Rruff sample: R060745
Ideal chemistry: Ti^4+^O_2_
Locality: Zagi Mountain near Hammedabad, Knaffor Dehri, NW Frontier Provence, Pakistan
Source: Herb Obodda
Description: Group of black prismatic crystals
Measured chemistry: (Ti_0.96_Nb^5+^_0.02_Fe^3+^_0.02_)_Î£=1_O_2_
Raman shift (cm-1)	intensity
142.254	0
145.147	16.8599
148.039	29.384
150.932	10.8241
153.825	15.7811
156.718	4.31189
159.61	17.5215
162.503	54.387
165.396	1.47986
168.288	53.316
171.181	56.3558
174.074	32.8181
176.966	72.4763
179.859	57.9833
182.752	93.4337
185.644	83.6314
188.537	29.9722
191.43	94.2733
194.323	105.826
197.215	86.3787
200.108	84.4018
203.001	76.4722
205.893	83.2383
208.786	69.1714
211.679	71.0443
214.571	53.8853
217.464	36.1597
220.357	3.42835
223.25	56.1969
226.142	56.5486
229.035	49.424
231.928	47.0181
234.82	43.3319
237.713	47.2512
240.606	23.6483
243.498	30.5079
246.391	47.3117
249.284	39.0633
252.177	26.388
255.069	51.605
257.962	23.6741
260.855	40.4133
263.747	15.0725
266.64	14.4591
269.533	51.7915
272.425	44.375
275.318	34.9255
278.211	33.4977
281.103	29.4828
283.996	46.5239
286.889	65.0919
289.782	70.865
292.674	38.2176
295.567	48.1731
298.46	65.1847
301.352	31.817
304.245	30.9519
307.138	61.2563
310.031	37.9412
312.923	35.964
315.816	30.7607
318.709	49.5692
321.601	36.772
324.494	2.50287
327.387	32.4512
330.279	21.7941
333.172	24.2333
336.065	9.76221
338.957	15.7032
341.85	7.7594
344.743	4.44299
347.635	9.10828
350.528	0.724487
353.421	13.7811
356.314	6.75153
359.206	2.51831
362.099	45.3317
364.992	19.7363
367.884	0.448547
370.777	34.1527
373.67	31.9516
376.562	18.8958
379.455	47.7223
382.348	61.1851
385.241	63.3029
388.133	56.4757
391.026	51.8478
393.919	31.8911
396.811	13.3322
399.704	17.2176
402.597	9.1095
405.49	28.6926
408.382	32.7334
411.275	30.4686
414.168	31.5835
417.06	49.5353
419.953	38.8141
422.846	17.5636
425.738	30.2825
428.631	27.6043
431.524	37.6787
434.416	37.9736
437.309	71.0991
440.202	24.845
443.094	81.2948
445.987	43.3591
448.88	32.446
451.773	55.3834
454.665	62.1714
457.558	39.0647
460.451	54.07
463.343	16.9387
466.236	4.72961
469.129	32.5299
472.022	3.83569
474.914	22.5355
477.807	39.4727
480.7	38.0458
483.592	53.9728
486.485	76.3998
489.378	48.889
492.27	67.2224
495.163	79.1375
498.056	94.918
500.949	107.827
503.841	92.2172
506.734	93.0562
509.627	111.08
512.519	78.4542
515.412	81.2355
518.305	29.73
521.197	23.6282
524.09	16.0985
526.983	20.0692
529.875	7.98377
532.768	11.3195
535.661	30.5636
538.554	0.393433
541.446	3.85998
544.339	17.0122
547.232	13.8448
550.124	57.3884
553.017	37.4338
555.91	52.2761
558.802	98.1854
561.695	141.934
564.588	196.82
567.481	241.597
570.373	267.892
573.266	371.936
576.159	435.005
579.051	479.643
581.944	482.785
584.837	495.973
587.729	505.41
590.622	494.466
593.515	455.624
596.408	473.695
599.3	524.205
602.193	514.029
605.086	563.857
607.978	554.135
610.871	606.896
613.764	587.536
616.656	560.068
619.549	558.343
622.442	505.812
625.335	460.742
628.227	449.004
631.12	413.469
634.013	327.122
636.905	315.023
639.798	274.329
642.691	240.636
645.583	215.105
648.476	145.081
651.369	158.015
654.261	139.777
657.154	123.072
660.047	103.32
662.94	103.886
665.832	75.1277
668.725	28.3663
671.618	52.5483
674.51	69.8524
677.403	23.9401
680.296	51.3569
683.188	5.43628
686.081	19.5
688.974	5.24731
691.866	0.707031
694.759	7.83643
697.652	4.33472
700.545	8.40942
703.437	2.49597
706.33	8.41895
709.223	9.42224
712.115	40.8704
715.008	32.9187
717.901	13.5353
720.793	2.64801
723.686	36.4528
726.579	41.6482
729.472	4.11566
732.364	10.7054
735.257	2.70367
738.15	4.08057
741.042	0.487366
743.935	11.6271
746.828	23.7855
749.721	17.9879
752.613	10.6325
755.506	23.8338
758.399	28.3901
761.291	4.2243
764.184	24.793
767.077	41.2718
769.969	0.366394
772.862	9.22955
775.755	41.2521
778.648	3.58038
781.54	20.0245
784.433	0.779968
787.326	58.819
790.218	19.8895
793.111	50.3953
796.004	37.8304
798.896	9.18567
801.789	48.3068
804.682	49.7429
807.574	33.325
810.467	24.2882
813.36	59.4027
816.253	51.3565
819.145	60.351
822.038	49.3415
824.931	66.0831
827.823	61.9273
830.716	92.6047
833.609	93.5116
836.501	51.7406
839.394	56.3397
842.287	72.7218
845.179	54.4194
848.072	52.5594
850.965	44.2996
853.858	25.968
856.75	49.13
859.643	22.868
862.536	40.1019
865.428	5.00256
868.321	42.8716
871.214	4.51862
874.106	42.0375
876.999	37.2845
879.892	13.6506
882.784	23.5283
885.677	22.6086
888.57	0.377686
891.463	17.2672
894.355	31.5146
897.248	45.6717
900.141	19.984
903.033	33.8753
905.926	0.779236
908.819	16.8345
911.712	41.141
914.604	4.41962
917.497	32.7268
920.39	34.0172
923.282	13.2122
926.175	24.645
929.068	20.6503
931.96	25.8882
934.853	19.1247
937.746	10.9199
940.639	20.718
943.531	38.2637
946.424	42.5945
949.317	21.5156
952.209	36.0286
955.102	14.3261
957.995	34.42
960.887	18.9952
963.78	20.378
966.673	39.7715
969.566	13.3804
972.458	6.51526
975.351	25.4036
978.244	0.322083
981.136	11.3494
984.029	44.182
986.922	16.8625
989.814	38.2958
992.707	7.08856
995.6	29.933
998.492	14.1408
1001.38	16.5427
1004.28	14.8007
1007.17	30.2034
1010.06	33.2867
1012.96	15.7762
1015.85	4.68567
1018.74	27.1144
1021.63	24.079
1024.53	24.9302
1027.42	24.697
1030.31	71.5073
1033.2	57.4403
1036.1	50.6918
1038.99	47.5961
1041.88	3.12708
1044.78	5.77557
1047.67	30.4901
1050.56	16.0055
1053.45	20.2634
1056.35	14.1072
1059.24	18.5472
1062.13	10.4077
1065.03	20.3073
1067.92	40.6912
1070.81	12.7245
1073.7	53.991
1076.6	33.7357
1079.49	51.6029
1082.38	23.7977
1085.27	7.92456
1088.17	25.5319
1091.06	2.41113
1093.95	5.15399
1096.84	36.6112
1099.74	12.1254
1102.63	35.0792
1105.52	41.4197
1108.41	42.8194
1111.31	46.3661
1114.2	31.4905
1117.09	35.6353
1119.99	11.5073
1122.88	23.3453
1125.77	25.4
1128.66	18.4965
1131.56	35.495
1134.45	23.705
1137.34	2.1615
1140.23	34.9062
1143.13	16.0089
1146.02	30.4009
1148.91	28.4227
1151.81	11.9109
1154.7	40.3972
1157.59	6.00012
1160.48	32.6618
1163.38	8.85608
1166.27	13.6822
1169.16	13.529
1172.05	0.66394
1174.95	23.6404
1177.84	11.8404
1180.73	19.7487
1183.62	31.3052
1186.52	28.1244
1189.41	53.5959
1192.3	26.8687
1195.2	25.9767
1198.09	26.217
1200.98	50.5045
1203.87	36.1795
1206.77	27.9694
1209.66	30.0721
1212.55	40.5671
1215.44	22.0076
1218.34	23.8851
1221.23	24.1574
1224.12	40.4014
1227.02	30.9883
1229.91	17.8683
1232.8	47.5518
1235.69	40.477
1238.59	52.3585
1241.48	32.2491
1244.37	17.122
1247.26	30.1464
1250.16	15.9327
1253.05	11.3581
1255.94	11.4872
1258.84	37.5728
1261.73	37.3978
1264.62	27.9084
1267.51	60.5287
1270.41	29.796
1273.3	33.7394
1276.19	38.2508
1279.08	55.9984
1281.98	38.436
1284.87	43.0853
1287.76	76.5089
1290.65	0
