Measurement: Raman, 532 nm, unoriented, Raman Data Processed
Mineral: Rutile
Rruff sample: R040049
Ideal chemistry: Ti^4+^O_2_
Locality: Graves Mountain, Lincoln County, Georgia, USA
Source: University of Arizona Mineral Museum
Description: Reddish-black fragments
Measured chemistry: (Ti_1.00_Fe_0.01_)O_2_
Raman shift (cm-1)	intensity
170.75	0
173.642	11.3599
176.535	15.48
179.428	111.922
182.32	201.273
185.213	319.175
188.106	401.903
190.998	669.868
193.891	715.193
196.784	980.008
199.677	1082.58
202.569	1370.47
205.462	1592.13
208.355	1841.44
211.247	2035.17
214.14	2226.39
217.033	2424.82
219.925	2635.2
222.818	2939.46
225.711	3169.29
228.603	3251.99
231.496	3405.3
234.389	3402.13
237.282	3438.87
240.174	3295.12
243.067	3203.2
245.96	3135.98
248.852	3037.51
251.745	2801.47
254.638	2547.42
257.531	2459
260.423	2132.39
263.316	2006.41
266.209	1820.44
269.101	1765.37
271.994	1562.32
274.887	1360.39
277.779	1175.64
280.672	953.174
283.565	778.894
286.457	545.761
289.35	419.476
292.243	210.403
295.136	42.0459
298.028	13.0371
300.921	47.25
303.814	137.964
306.706	29.2861
309.599	29.1367
312.492	4.14453
315.385	41.1582
318.277	11.5898
321.17	9.88379
324.063	24.5811
326.955	44.8984
329.848	8.19336
332.741	28.877
335.633	13.9277
338.526	2.06348
341.419	8.93164
344.312	26.5273
347.204	26.7998
350.097	101.739
352.99	134.342
355.882	124.167
358.775	56.6582
361.668	105.419
364.56	107.743
367.453	20.4482
370.346	73.0303
373.238	95.1553
376.131	137.731
379.024	237.407
381.917	338.831
384.809	351.282
387.702	606.896
390.595	634.739
393.487	854.168
396.38	1166.84
399.273	1500.71
402.166	1804.83
405.058	2310.39
407.951	2930.19
410.844	3535.97
413.736	4231.58
416.629	5183.15
419.522	6198.53
422.414	7262.61
425.307	8247.22
428.2	9417.15
431.092	10699.7
433.985	11901.2
436.878	12923.7
439.771	13672.9
442.663	14310.4
445.556	14293.1
448.449	13754.1
451.341	12675.8
454.234	11099.6
457.127	9597.44
460.019	7804.1
462.912	6286.52
465.805	5029.57
468.697	3827.82
471.59	3013.16
474.483	2284.17
477.376	1734.02
480.268	1298.51
483.161	941.647
486.054	770.931
488.946	569.526
491.839	411.891
494.732	178.831
497.625	109.611
500.517	56.4761
503.41	72.1499
506.303	9.7666
509.195	16.4531
512.088	22.2246
514.981	68.3208
517.873	21.0605
520.766	36.6636
523.659	54.4736
526.552	133.04
529.444	8.32031
532.337	50.6333
535.23	141.923
538.122	60.5327
541.015	73.3965
543.908	47.8755
546.8	83.4394
549.693	76.1279
552.586	152.844
555.479	300.533
558.371	491.983
561.264	703.027
564.157	967.28
567.049	1268.5
569.942	1548.33
572.835	1988.13
575.727	2415.32
578.62	2982.16
581.513	3533.27
584.405	4236.14
587.298	5218.18
590.191	5750.16
593.084	6553.33
595.976	7565.16
598.869	8482.54
601.762	9472.42
604.654	10169.1
607.547	10713.9
610.44	10991.7
613.332	10760.5
616.225	10205.3
619.118	9339.15
622.011	8213.07
624.903	7066.82
627.796	6057.25
630.689	4986.56
633.581	4062.28
636.474	3407.97
639.367	2696.73
642.26	2139.92
645.152	1667.88
648.045	1225.48
650.938	1012.79
653.83	731.983
656.723	488.631
659.616	406.569
662.508	304.39
665.401	253.816
668.294	161.81
671.187	162.977
674.079	205.925
676.972	289.851
679.865	249.68
682.757	349.072
685.65	420.243
688.543	350.48
691.435	346.668
694.328	335.884
697.221	254.742
700.114	292.592
703.006	298.06
705.899	267.099
708.792	229.652
711.684	213.998
714.577	138.548
717.47	81.2178
720.362	74.0884
723.255	40.6924
726.148	13.9512
729.04	130.966
731.933	80.8227
734.826	52.0147
737.719	92.5298
740.611	37.8272
743.504	27.9536
746.397	82.9546
749.289	85.5776
752.182	153.463
755.075	227.572
757.967	271.895
760.86	376.944
763.753	530.392
766.646	649.32
769.538	790.483
772.431	955.789
775.324	1117.69
778.216	1281.97
781.109	1447.76
784.002	1594.52
786.894	1805.97
789.787	1939.22
792.68	2003.78
795.573	2028.6
798.465	2055.45
801.358	2125.41
804.251	2090
807.143	1978.89
810.036	1907.6
812.929	1770.2
815.822	1625.07
818.714	1508.16
821.607	1416.55
824.5	1289.75
827.392	1146.22
830.285	1012.49
833.178	880.416
836.07	764.481
838.963	623.721
841.856	508.798
844.748	448.58
847.641	336.899
850.534	255.894
853.427	211.045
856.319	135.591
859.212	61.2244
862.105	39.6055
864.997	53.9607
867.89	3.51831
870.783	3.69922
873.675	17.1824
876.568	19.1819
879.461	28.6653
882.354	28.7307
885.246	16.1204
888.139	25.573
891.032	7.17542
893.924	18.3408
896.817	58.9133
899.71	87.2374
902.602	103.89
905.495	105.212
908.388	97.3748
911.28	131.78
914.173	146.228
917.066	143.893
919.959	137.425
922.851	123.405
925.744	129.346
928.637	151.958
931.529	121.24
934.422	133.924
937.315	108.796
940.207	90.9596
943.1	76.5907
945.993	97.9152
948.886	88.6679
951.778	76.1787
954.671	69.3605
957.564	56.8966
960.456	49.9489
963.349	88.3237
966.242	64.7854
969.135	57.8428
972.027	57.8176
974.92	57.5214
977.813	79.6762
980.705	71.8091
983.598	53.1141
986.491	3.57361
989.383	9.0011
992.276	12.2229
995.169	20.5095
998.062	34.6189
1000.95	2.99463
1003.85	5.43396
1006.74	29.2019
1009.63	23.0659
1012.52	5.30566
1015.42	56.3167
1018.31	5.64502
1021.2	42.1429
1024.1	23.1381
1026.99	36.2853
1029.88	34.0543
1032.77	41.6919
1035.67	25.9425
1038.56	22.2299
1041.45	50.8124
1044.35	45.941
1047.24	19.4545
1050.13	31.8671
1053.02	6.57703
1055.92	29.8403
1058.81	12.9458
1061.7	48.5554
1064.59	7.56262
1067.49	37.3565
1070.38	7.00903
1073.27	0.40686
1076.16	3.40906
1079.06	20.2749
1081.95	5.34168
1084.84	6.73731
1087.73	26.2716
1090.63	15.0735
1093.52	1.23431
1096.41	17.1013
1099.31	22.5161
1102.2	8.4599
1105.09	14.0944
1107.98	37.7214
1110.88	21.9875
1113.77	48.0418
1116.66	25.8947
1119.56	5.0119
1122.45	6.8316
1125.34	15.4274
1128.23	44.4295
1131.13	31.2042
1134.02	37.7416
1136.91	52.1876
1139.8	14.4828
1142.7	10.6036
1145.59	6.04987
1148.48	25.1101
1151.38	33.2096
1154.27	38.4874
1157.16	34.788
1160.05	26.594
1162.94	28.549
1165.84	35.3417
1168.73	16.7859
1171.62	30.7422
1174.52	30.4432
1177.41	15.5641
1180.3	28.0318
1183.19	21.5538
1186.09	17.3478
1188.98	13.515
1191.87	44.2708
1194.77	21.2596
1197.66	26.7336
1200.55	15.4359
1203.44	19.8101
1206.34	62.9429
1209.23	31.7656
1212.12	23.5693
1215.01	24.8416
1217.91	25.7054
1220.8	44.035
1223.69	21.0624
1226.59	19.5784
1229.48	22.9961
1232.37	17.1309
1235.26	27.3744
1238.16	21.3457
1241.05	27.6817
1243.94	37.3688
1246.83	39.7484
1249.73	37.5099
1252.62	42.1906
1255.51	34.3729
1258.4	28.1946
1261.3	34.2707
1264.19	23.7114
1267.08	29.9243
1269.97	21.5205
1272.87	24.1939
1275.76	33.9932
1278.65	0.943665
1281.55	11.3231
1284.44	30.709
1287.33	28.808
1290.22	10.5839
