Measurement: Raman, 780 nm, unoriented, Raman Data Processed
Mineral: Rutile
Rruff sample: R120008
Ideal chemistry: Ti^4+^O_2_
Locality: Golconda, Minas Gerais, Brazil
Source: Rob Lavinsky
Description: Black fragments, variety struverite
Raman shift (cm-1)	intensity
143.19	0
146.083	1.17206
148.975	1.04471
151.868	1.18017
154.761	1.53223
157.654	1.97276
160.546	2.01634
163.439	1.26437
166.332	0.957048
169.224	-0.158637
172.117	1.24279
175.01	0.730346
177.902	-0.589496
180.795	0.627068
183.688	-0.523089
186.581	0.640315
189.473	1.0847
192.366	0.074005
195.259	1.51079
198.151	1.57727
201.044	0.241959
203.937	1.5197
206.829	1.84413
209.722	4.46048
212.615	4.76988
215.507	10.0358
218.4	9.83781
221.293	13.3869
224.186	13.7702
227.078	16.441
229.971	19.5007
232.864	20.1699
235.756	21.6936
238.649	24.9235
241.542	27.7745
244.435	27.5875
247.327	29.9739
250.22	32.2114
253.113	31.7453
256.005	28.6666
258.898	28.9717
261.791	28.8682
264.683	29.4222
267.576	30.2679
270.469	29.0101
273.361	29.0724
276.254	30.6812
279.147	31.7961
282.04	31.0051
284.932	32.9802
287.825	32.667
290.718	32.0479
293.61	32.868
296.503	29.858
299.396	29.409
302.288	24.5698
305.181	21.9503
308.074	19.1906
310.967	14.3235
313.859	10.5032
316.752	7.98912
319.645	8.83444
322.537	4.17171
325.43	2.57202
328.323	1.80574
331.216	0.610809
334.108	0.000229
337.001	0.210159
339.894	0.052322
342.786	1.27242
345.679	1.08827
348.572	2.32562
351.464	1.25995
354.357	0.629608
357.25	0.487366
360.142	1.73386
363.035	2.29475
365.928	3.96933
368.821	7.4064
371.713	5.79378
374.606	7.08286
377.499	9.58029
380.391	11.2697
383.284	12.1802
386.177	13.3767
389.07	13.8318
391.962	15.4902
394.855	18.2768
397.748	14.4233
400.64	17.0179
403.533	12.521
406.426	14.6646
409.318	10.8122
412.211	11.1741
415.104	10.1995
417.997	9.03738
420.889	8.01001
423.782	8.5713
426.675	6.74121
429.567	7.29298
432.46	8.75592
435.353	8.76434
438.245	8.0435
441.138	10.3828
444.031	12.0096
446.923	10.7191
449.816	14.0308
452.709	16.2913
455.602	16.9176
458.494	20.1913
461.387	21.8913
464.28	23.0998
467.172	25.8683
470.065	24.2697
472.958	26.9744
475.851	27.519
478.743	27.0633
481.636	25.0716
484.529	23.6366
487.421	20.6983
490.314	19.695
493.207	18.0591
496.099	16.632
498.992	15.7297
501.885	14.3144
504.777	12.6716
507.67	9.44464
510.563	10.0702
513.456	8.41684
516.348	7.88547
519.241	6.09612
522.134	5.75572
525.026	2.82326
527.919	5.37645
530.812	3.42776
533.705	2.11716
536.597	2.56711
539.49	1.30141
542.383	0.303329
545.275	1.64918
548.168	1.22319
551.061	0.682419
553.953	0.315414
556.846	0.342285
559.739	0.58548
562.631	1.19569
565.524	0.828049
568.417	0.572449
571.31	0.495224
574.202	2.27565
577.095	0.017105
579.988	0.902176
582.88	0.090164
585.773	2.41624
588.666	2.9048
591.558	3.59407
594.451	5.12065
597.344	7.62814
600.237	9.37434
603.129	10.0145
606.022	11.8995
608.915	16.1068
611.807	16.9138
614.7	18.6659
617.593	23.1787
620.486	25.7587
623.378	29.0755
626.271	31.6914
629.164	33.9365
632.056	38.1333
634.949	39.6589
637.842	43.9971
640.734	45.2238
643.627	46.695
646.52	49.4323
649.413	49.1627
652.305	49.7649
655.198	48.2189
658.091	48.1134
660.983	45.4479
663.876	42.1738
666.769	41.7016
669.661	37.787
672.554	34.596
675.447	32.1699
678.34	29.3803
681.232	26.2029
684.125	24.5047
687.018	21.9683
689.91	19.1722
692.803	16.3097
695.696	13.9496
698.588	13.5091
701.481	10.5824
704.374	8.3148
707.266	9.04814
710.159	6.13966
713.052	5.99356
715.945	4.73856
718.837	2.96666
721.73	2.51392
724.623	2.58803
727.515	1.543
730.408	1.33664
733.301	0.881851
736.193	0.471527
739.086	0.63414
741.979	0.039536
744.872	0.373688
747.764	0.188995
750.657	1.69785
753.55	0.227951
756.442	0.1418
759.335	1.34056
762.228	0.190903
765.12	1.01946
768.013	1.57829
770.906	4.64011
773.799	2.94429
776.691	3.1704
779.584	3.71684
782.477	5.3992
785.369	5.77838
788.262	8.02919
791.155	9.0351
794.048	8.0621
796.94	7.78438
799.833	10.7273
802.726	12.2549
805.618	12.696
808.511	13.0586
811.404	14.357
814.296	13.9115
817.189	16.3425
820.082	16.1015
822.975	17.6185
825.867	17.1431
828.76	19.4348
831.653	18.3512
834.545	18.496
837.438	16.8666
840.331	18.7636
843.223	17.5351
846.116	14.6959
849.009	15.8171
851.902	14.4178
854.794	14.1564
857.687	11.3716
860.58	11.7041
863.472	11.7891
866.365	9.1163
869.258	7.90881
872.15	7.09646
875.043	5.45165
877.936	4.47452
880.829	4.34759
883.721	3.9244
886.614	3.16753
889.507	1.57343
892.399	2.10223
895.292	0.559418
898.185	0.491165
901.077	0.03125
903.97	0.48806
906.863	0.657806
909.756	0.15139
912.648	0.465637
915.541	0.980087
918.434	0.324387
921.326	0.9319
924.219	1.15163
927.112	0.600891
930.005	0.519791
932.897	0.718811
935.79	1.01591
938.683	2.00075
941.575	1.17686
944.468	1.06955
947.361	1.69339
950.253	2.4331
953.146	1.03338
956.039	1.1255
958.932	2.47481
961.824	2.59957
964.717	2.02737
967.61	1.97848
970.502	2.20509
973.395	0.281555
976.288	1.86793
979.18	1.14819
982.073	2.10244
984.966	2.36813
987.859	1.61881
990.751	1.07223
993.644	1.62828
996.537	1.13987
999.429	1.32771
1002.32	0.541534
1005.22	0.026268
1008.11	1.67782
1011	2.31038
1013.89	0.809349
1016.78	2.22196
1019.68	1.94309
1022.57	0.38118
1025.46	1.33572
1028.36	1.90729
1031.25	2.08689
1034.14	3.16474
1037.03	1.94975
1039.93	1.87666
1042.82	1.50663
1045.71	1.41762
1048.61	1.5833
1051.5	2.0479
1054.39	1.27788
1057.28	2.27383
1060.18	1.96993
1063.07	2.82543
1065.96	2.65234
1068.85	1.7102
1071.75	0.899818
1074.64	1.96785
1077.53	1.62663
1080.42	1.23861
1083.32	0.208389
1086.21	0.092056
1089.1	2.56615
1092	0.484772
1094.89	2.16593
1097.78	0.93541
1100.67	0.590721
1103.57	1.62702
1106.46	0.466949
1109.35	1.66373
1112.24	0.43174
1115.14	0.463783
1118.03	0.782784
1120.92	3.31245
1123.82	1.3553
1126.71	1.18387
1129.6	0.746193
1132.49	1.85224
1135.39	0.571922
1138.28	1.99161
1141.17	1.24429
1144.06	1.48365
1146.96	1.46249
1149.85	1.20206
1152.74	1.25004
1155.63	1.88886
1158.53	3.6538
1161.42	0.901848
1164.31	1.90565
1167.21	0.496254
1170.1	0.522217
1172.99	0.161583
1175.88	0.916428
1178.78	0.313515
1181.67	1.81988
1184.56	0.04351
1187.45	1.45686
1190.35	0.781052
1193.24	0.14711
1196.13	0.01976
1199.03	1.28486
1201.92	2.26028
1204.81	2.66945
1207.7	2.1851
1210.6	1.57622
1213.49	1.67172
1216.38	0.688812
1219.27	0.148575
1222.17	1.06576
1225.06	1.12943
1227.95	0.524193
1230.85	0.761131
1233.74	0.418465
1236.63	1.63733
1239.52	2.09963
1242.42	0.946304
1245.31	1.70769
1248.2	0.26651
1251.09	1.09096
1253.99	0.009674
1256.88	1.26445
1259.77	2.39223
1262.66	1.62423
1265.56	2.27257
1268.45	1.79037
1271.34	1.25277
1274.24	1.26892
1277.13	0.648018
1280.02	3.50427
1282.91	1.46581
