Measurement: Raman, 532 nm, unoriented, Raman Data Processed
Mineral: Rutile
Rruff sample: R120008
Ideal chemistry: Ti^4+^O_2_
Locality: Golconda, Minas Gerais, Brazil
Source: Rob Lavinsky
Description: Black fragments, variety struverite
Raman shift (cm-1)	intensity
190.773	0
193.665	2.09668
196.558	2.22989
199.451	0.463608
202.343	1.95444
205.236	1.72784
208.129	3.09897
211.021	4.49365
213.914	7.1915
216.807	5.97685
219.699	6.29057
222.592	9.96361
225.485	9.00923
228.377	9.52161
231.27	11.8648
234.163	12.2316
237.056	11.4496
239.948	14.6559
242.841	12.5916
245.734	14.0359
248.626	16.9098
251.519	13.9681
254.412	13.1123
257.305	11.8678
260.197	12.7897
263.09	12.0735
265.983	13.2684
268.875	12.8933
271.768	12.2659
274.661	10.2672
277.553	12.1978
280.446	11.4739
283.339	12.0636
286.232	10.4213
289.124	8.78987
292.017	9.37273
294.91	9.01373
297.802	9.03246
300.695	7.29483
303.588	7.13281
306.481	7.38907
309.373	4.95738
312.266	5.75284
315.159	4.37488
318.051	4.18462
320.944	2.55809
323.837	2.68383
326.729	1.45982
329.622	0.024147
332.515	0.664284
335.408	0.16626
338.3	0.715065
341.193	0.464615
344.086	0.674164
346.978	0.517151
349.871	1.02127
352.764	1.48672
355.656	0.818176
358.549	0.286247
361.442	1.26324
364.334	0.372742
367.227	0.056511
370.12	0.646347
373.012	1.46522
375.905	1.99047
378.798	4.46827
381.691	5.32899
384.583	5.27958
387.476	6.19129
390.369	9.65803
393.261	7.21644
396.154	9.03846
399.047	7.49655
401.94	7.46135
404.832	9.76578
407.725	7.81985
410.618	9.02971
413.51	8.83032
416.403	7.34221
419.296	7.86501
422.188	5.91853
425.081	6.11127
427.974	6.19471
430.866	5.27232
433.759	5.48717
436.652	4.98081
439.545	4.21846
442.437	5.02728
445.33	3.03064
448.223	5.16845
451.115	4.03033
454.008	4.65409
456.901	4.52537
459.793	5.46995
462.686	6.33949
465.579	5.82003
468.472	6.03466
471.364	6.94148
474.257	5.93213
477.15	7.83463
480.042	8.42355
482.935	6.69058
485.828	6.79047
488.721	4.73508
491.613	6.33474
494.506	6.16491
497.399	5.83766
500.291	5.69189
503.184	3.29465
506.077	3.613
508.969	0.668121
511.862	2.40968
514.755	1.59064
517.648	0.618019
520.54	1.08385
523.433	0.374809
526.326	0.024727
529.218	2.18753
532.111	0.447342
535.004	0.356064
537.896	0.203064
540.789	0.63253
543.682	0.549919
546.575	0.374535
549.467	0.560257
552.36	0.893379
555.253	0.329285
558.145	0.089836
561.038	2.04242
563.931	0.016945
566.823	0.678619
569.716	1.69799
572.609	1.68401
575.502	1.22583
578.394	2.25652
581.287	2.55348
584.18	3.21751
587.072	2.36193
589.965	1.6004
592.858	2.75598
595.75	3.19083
598.643	2.95309
601.536	4.42033
604.428	4.92358
607.321	3.05228
610.214	4.75468
613.107	5.28062
615.999	4.32613
618.892	3.79629
621.785	3.87818
624.677	5.04702
627.57	6.52904
630.463	3.6809
633.356	5.83159
636.248	4.41946
639.141	3.7329
642.034	5.17805
644.926	5.38953
647.819	6.46107
650.712	5.82025
653.604	6.38438
656.497	6.46227
659.39	6.41826
662.283	6.83918
665.175	5.48438
668.068	4.0707
670.961	3.73051
673.853	4.02008
676.746	4.4883
679.639	3.37763
682.531	3.12926
685.424	1.77892
688.317	1.79886
691.21	1.22739
694.102	1.1091
696.995	0.869484
699.888	0.673668
702.78	0.030296
705.673	0.247726
708.566	0.368599
711.458	0.303658
714.351	0.20356
717.244	0.994614
720.136	0.148819
723.029	0.089287
725.922	0.607605
728.815	1.43816
731.707	0.211418
734.6	0.451836
737.493	0.990364
740.385	1.4843
743.278	1.60743
746.171	2.15305
749.063	2.70575
751.956	1.73589
754.849	1.89728
757.742	4.41637
760.634	4.2578
763.527	4.39726
766.42	6.5835
769.312	6.44713
772.205	8.49147
775.098	10.0761
777.99	10.1574
780.883	11.0287
783.776	11.8982
786.669	14.6411
789.561	14.5357
792.454	18.0727
795.347	19.9017
798.239	20.0652
801.132	21.837
804.025	25.2066
806.918	28.553
809.81	28.3571
812.703	30.0489
815.596	32.5799
818.488	34.1698
821.381	37.1522
824.274	37.0777
827.166	38.1945
830.059	40.5954
832.952	38.8837
835.845	40.5099
838.737	40.2618
841.63	38.1569
844.523	34.9757
847.415	35.218
850.308	32.822
853.201	32.7294
856.093	29.7765
858.986	25.887
861.879	23.7169
864.771	21.5227
867.664	17.942
870.557	16.2689
873.45	14.2003
876.342	10.2316
879.235	9.64696
882.128	7.45187
885.02	4.06506
887.913	4.54379
890.806	3.11713
893.698	2.31567
896.591	0.396873
899.484	1.14458
902.377	0.571045
905.269	1.03205
908.162	0.622055
911.055	1.57902
913.947	1.81676
916.84	0.473427
919.733	0.767242
922.625	0.578796
925.518	0.141205
928.411	0.086143
931.304	0.228485
934.196	1.58923
937.089	1.11317
939.982	1.11275
942.875	2.1282
945.767	2.56559
948.66	1.1599
951.553	1.12664
954.445	2.60623
957.338	3.42759
960.231	2.33427
963.123	3.0579
966.016	2.18848
968.909	1.8985
971.802	1.41237
974.694	1.53871
977.587	2.50521
980.48	1.02578
983.372	1.31408
986.265	2.38969
989.158	1.72589
992.05	1.39611
994.943	2.14384
997.836	2.33527
1000.73	0.43224
1003.62	2.81265
1006.51	1.57499
1009.41	1.96485
1012.3	1.22151
1015.19	1.76346
1018.09	1.16544
1020.98	3.67426
1023.87	2.21967
1026.76	2.29077
1029.66	2.33657
1032.55	2.44677
1035.44	3.39781
1038.33	2.24994
1041.23	2.5304
1044.12	3.5392
1047.01	2.12742
1049.9	2.6441
1052.8	2.32497
1055.69	1.17443
1058.58	1.3947
1061.47	1.16638
1064.37	1.27321
1067.26	2.52472
1070.15	1.29771
1073.05	1.29988
1075.94	1.83475
1078.83	1.40296
1081.72	0.212086
1084.62	1.46508
1087.51	0.703556
1090.4	1.68103
1093.3	1.01297
1096.19	0.728828
1099.08	0.401138
1101.97	0.341137
1104.87	1.19003
1107.76	1.53615
1110.65	1.37348
1113.54	0.11832
1116.44	0.653477
1119.33	0.058922
1122.22	0.219639
1125.12	0.880188
1128.01	0.15279
1130.9	0.231205
1133.79	0.855507
1136.68	1.34972
1139.58	0.565147
1142.47	0.335613
1145.36	1.3054
1148.26	0.009045
1151.15	1.29753
1154.04	0.296234
1156.93	0.169537
1159.83	0.313541
1162.72	0.819168
1165.61	0.914421
1168.51	1.74479
1171.4	0.876213
1174.29	0.417652
1177.18	1.5333
1180.08	1.39212
1182.97	1.65409
1185.86	0.729271
1188.75	2.17871
1191.65	0.918858
1194.54	1.2191
1197.43	1.3239
1200.33	1.32923
1203.22	0.495548
1206.11	1.72649
1209	0.844738
1211.9	0.132263
1214.79	1.25171
1217.68	0.302898
1220.57	1.72054
1223.47	1.1936
1226.36	2.83446
1229.25	1.06201
1232.14	1.3484
1235.04	0.752975
1237.93	0.708755
1240.82	1.73429
1243.71	0.542336
1246.61	1.0556
1249.5	1.35289
1252.39	2.35127
1255.29	1.51341
1258.18	1.00703
1261.07	2.08431
1263.96	1.50517
1266.86	0.872913
1269.75	0.479092
1272.64	1.75488
1275.54	1.35352
1278.43	0.702637
1281.32	1.55891
1284.21	2.09829
1287.11	1.70139
1290	1.61648
1292.89	2.81846
1295.78	1.38472
1298.68	1.67152
1301.57	0.294655
