Measurement: Raman, 514 nm, unoriented, Raman Data Processed
Mineral: Rutile
Rruff sample: R040049
Ideal chemistry: Ti^4+^O_2_
Locality: Graves Mountain, Lincoln County, Georgia, USA
Source: University of Arizona Mineral Museum
Description: Reddish-black fragments
Measured chemistry: (Ti_1.00_Fe_0.01_)O_2_
Raman shift (cm-1)	intensity
168.308	0
172.452	1.126
176.594	24.988
180.734	95.948
184.872	199.694
189.008	339.854
193.143	553.795
197.275	678.813
201.405	954.635
205.534	1106.91
209.66	1247.52
213.784	1079.93
217.907	1308.11
222.027	1528.57
226.146	1652.84
230.263	1996.61
234.377	2089.67
238.49	2157.45
242.601	2192.14
246.709	2179.57
250.816	1992.1
254.921	1711.74
259.024	1398.04
263.125	1269.67
267.224	1129.42
271.321	886.144
275.416	718.93
279.51	667.84
283.601	346.921
287.69	411.208
291.778	247.725
295.863	175.493
299.947	67.528
304.029	67.157
308.108	46.451
312.186	21.636
316.262	83.597
320.336	41.116
324.408	61.944
328.478	68.119
332.546	80.335
336.612	186.676
340.677	95.772
344.739	153.762
348.799	163.97
352.858	258.324
356.915	265.426
360.969	249.303
365.022	304.79
369.073	323.828
373.122	423.372
377.169	420.388
381.215	380.846
385.258	457.716
389.299	538.978
393.339	507.617
397.376	648.622
401.412	818.928
405.446	1146.54
409.478	1394.49
413.508	1718.75
417.536	2167.32
421.562	2451.88
425.586	2994.31
429.609	3535.71
433.629	4030.39
437.648	4275.36
441.665	4475.63
445.68	4548.2
449.693	4086.09
453.704	3538.28
457.713	2835.8
461.721	2184.65
465.726	1634.92
469.73	1174.92
473.731	681.396
477.731	376.581
481.729	242.803
485.725	142.169
489.72	170.634
493.712	63.372
497.703	1.084
501.691	57.156
505.678	62.908
509.663	86.558
513.646	109.333
517.627	161.026
521.607	216.019
525.584	236.701
529.56	303.173
533.534	434.077
537.506	568.411
541.476	897.176
545.444	1143.93
549.41	1380
553.375	1720.05
557.337	2165.54
561.298	2850.47
565.257	3291.82
569.214	4181.62
573.17	5058.88
577.123	6127.69
581.075	7069.12
585.024	8621.13
588.972	9929.79
592.918	11752.1
596.863	13629
600.805	14964.6
604.746	16815.8
608.685	17831.7
612.621	17898.1
616.557	16977.1
620.49	15609.6
624.421	13793.7
628.351	11531.4
632.279	10040.6
636.205	8811.26
640.129	7155.43
644.051	6274.08
647.972	5393.45
651.89	4814.56
655.807	4066.38
659.722	3823.4
663.636	3381.39
667.547	3052.12
671.457	3036.23
675.365	2811.7
679.271	2763.61
683.175	2532.98
687.077	2567.1
690.978	2399.01
694.877	2193.67
698.774	2111.73
702.669	1952.2
706.562	1856.06
710.454	1643.32
714.344	1632.94
718.232	1569.94
722.118	1385.39
726.002	1293.83
729.885	1150.6
733.766	1086.58
737.645	1001.15
741.522	1062.84
745.397	1046.98
749.271	917.797
753.143	1061.51
757.013	1035.87
760.881	1113.56
764.748	1190.06
768.613	1324.81
772.476	1366.21
776.337	1556.1
780.196	1637.68
784.054	1818.91
787.91	1902.96
791.764	2087.18
795.616	2123.92
799.467	2223.32
803.316	2140.26
807.163	2050.78
811.008	1974.38
814.851	1879.44
818.693	1787.64
822.533	1708.09
826.371	1481.42
830.208	1431.73
834.042	1208.01
837.875	1017.36
841.706	836.082
845.536	705.601
849.363	514.86
853.189	409.991
857.013	348.708
860.836	187.424
864.656	183.086
868.475	100.395
872.292	3.904
876.108	9.306
879.922	30.991
883.733	55.458
887.544	59.386
891.352	84.224
895.159	38.685
898.964	51.906
902.767	70.039
906.568	52.882
910.368	57.081
914.166	34.361
917.962	2.97
921.757	44.635
925.55	19.044
929.341	2.419
933.13	27.005
936.918	68.825
940.703	15.197
944.488	39.203
948.27	37.447
952.051	27.318
955.83	22.461
959.607	54.893
963.383	86.968
967.156	107.645
970.928	83.416
974.699	95.033
978.468	193.838
982.234	174.688
986	152.501
989.763	165.973
993.525	219.812
997.285	221.089
1001.04	220.781
1004.8	241.845
1008.55	230.41
1012.31	202.095
1016.06	218.467
1019.81	255.352
1023.56	242.222
1027.31	234.345
1031.05	304.712
1034.79	267.542
1038.53	279.944
1042.27	269.359
1046.01	276.433
1049.75	255.111
1053.48	238.603
1057.22	184.02
1060.95	213.199
1064.68	169.48
1068.4	180.525
1072.13	174.788
1075.86	153.747
1079.58	160.434
1083.3	155.066
1087.02	136.759
1090.74	99.368
1094.45	128.861
1098.17	106.779
1101.88	108.19
1105.59	104.017
1109.3	103.19
1113.01	46.057
1116.71	89.968
1120.42	100.208
1124.12	421.523
1127.82	131.738
1131.52	83.703
1135.22	41.988
1138.91	49.094
1142.61	24.544
1146.3	53.418
1149.99	48.125
1153.68	54.508
1157.37	51.498
1161.06	47.224
1164.74	14.651
1168.42	26.734
1172.1	60.051
1175.78	55.931
1179.46	80.796
1183.14	36.61
1186.81	14.797
1190.48	41.723
1194.15	108.715
1197.83	82.534
1201.49	75.691
1205.16	72.536
1208.82	54.119
1212.49	51.761
1216.15	65.273
1219.81	69.025
1223.46	62.669
1227.12	51.215
1230.78	51.086
1234.43	59.457
1238.08	86.859
1241.73	66.954
1245.38	69.999
1249.03	76.906
1252.67	91.666
1256.31	68.373
1259.95	79.391
1263.6	81.964
1267.23	94.4
1270.87	44.032
1274.51	27.293
1278.14	43.706
1281.77	13.471
1285.4	45.155
1289.03	44.551
1292.66	45.198
1296.28	52.587
1299.91	61.033
1303.53	4.692
1307.15	45.886
1310.77	16.918
1314.38	16.058
1318	40.558
1321.61	15.924
1325.23	16.192
1328.84	13.504
1332.45	2.729
1336.06	9.955
1339.66	30.333
1343.27	5.585
1346.87	13.735
1350.47	36.202
1354.07	23.738
1357.67	20.973
1361.26	6.476
1364.86	16.714
1368.45	9.897
1372.04	26.746
1375.63	2.096
1379.22	2.954
1382.81	5.663
1386.39	25.981
1389.98	51.014
1393.56	34.833
1397.14	35.828
1400.72	14.483
1404.3	10.781
1407.87	18.195
1411.45	54.552
1415.02	18.197
1418.59	15.616
1422.16	30.783
1425.73	25.3
1429.29	37.965
1432.86	92.207
1436.42	70.551
1439.98	65.341
1443.54	112.293
1447.1	12.699
1450.66	86.961
1454.21	63.639
1457.77	40.399
1461.32	30.1
1464.87	28.534
1468.42	46.398
1471.96	82.774
1475.51	55.776
1479.06	13.03
1482.6	59.603
1486.14	58.082
1489.68	14.37
1493.22	1.909
1496.75	47.354
1500.29	40.446
1503.82	5.368
1507.35	59.717
1510.88	23.652
1514.41	30.245
1517.94	35.255
1521.46	23.804
1524.99	0
