Measurement: Raman, 780 nm, unoriented, Raman Data Processed
Mineral: Sadanagaite
Rruff sample: R080070
Ideal chemistry: NaCa_2_(Mg_3_Al_2_)(Si_5_Al_3_)O_22_(OH)_2_
Locality: Ilmen Mts, Chelyabinsk Oblast', Urals Region, Russia
Source: Michael Scott
Description: Unconsolidated aggregate of black to dark brown grains showing strong pleochroism
Raman shift (cm-1)	intensity
155.681	0
158.573	0.912201
161.466	1.73523
164.359	1.41977
167.251	0.003418
170.144	0.836151
173.037	3.46204
175.93	0.602585
178.822	1.49518
181.715	0.907623
184.608	0.454666
187.5	0.695831
190.393	1.09361
193.286	0.761688
196.179	1.30333
199.071	0.255463
201.964	1.12712
204.857	2.95776
207.749	1.93785
210.642	3.56085
213.535	4.4991
216.427	4.19975
219.32	4.45476
222.213	1.01495
225.106	1.80995
227.998	2.10318
230.891	0.754181
233.784	2.00778
236.676	0.510178
239.569	1.60045
242.462	1.01721
245.354	0.387695
248.247	1.46407
251.14	1.34306
254.032	0.689697
256.925	0.155746
259.818	2.26912
262.711	1.61037
265.603	2.43188
268.496	2.87595
271.389	2.9821
274.281	3.55928
277.174	5.94107
280.067	3.12082
282.959	6.33041
285.852	5.0791
288.745	6.01093
291.638	4.9603
294.53	4.04419
297.423	4.10162
300.316	3.33189
303.208	3.93924
306.101	1.09404
308.994	1.31097
311.887	1.02202
314.779	0.128128
317.672	0.597885
320.565	0.010971
323.457	0.37854
326.35	2.01816
329.243	0.008942
332.135	1.20308
335.028	0.996796
337.921	2.78038
340.813	3.79442
343.706	4.34189
346.599	4.90245
349.492	6.39774
352.384	5.5442
355.277	6.24763
358.17	4.50887
361.062	5.87949
363.955	7.24849
366.848	4.86285
369.74	5.3511
372.633	3.53265
375.526	5.06783
378.419	2.85045
381.311	2.17233
384.204	1.54777
387.097	0.414352
389.989	0.86676
392.882	1.56262
395.775	1.87872
398.668	0.948746
401.56	0.881546
404.453	0.367554
407.346	0.523743
410.238	0.087311
413.131	0.711761
416.024	0.967407
418.916	1.1936
421.809	2.96916
424.702	2.06921
427.594	3.98532
430.487	1.62529
433.38	0.715332
436.273	0.427338
439.165	0.902496
442.058	0.536087
444.951	0.154129
447.843	0.224106
450.736	0.327133
453.629	0.72612
456.522	0.877563
459.414	0.559586
462.307	0.962051
465.2	0.045181
468.092	2.73052
470.985	1.60698
473.878	2.04173
476.77	1.71153
479.663	3.09782
482.556	4.2364
485.449	4.67735
488.341	5.41658
491.234	6.24661
494.127	7.25595
497.019	9.53038
499.912	11.7632
502.805	11.8581
505.697	13.2477
508.59	14.779
511.483	17.5203
514.375	15.9935
517.268	17.5654
520.161	16.6327
523.054	18.8165
525.946	18.364
528.839	17.9532
531.732	16.1398
534.624	15.0148
537.517	14.1361
540.41	12.1165
543.303	11.89
546.195	11.4332
549.088	10.5624
551.981	9.58948
554.873	8.58639
557.766	7.09193
560.659	6.35646
563.551	4.52841
566.444	3.30705
569.337	2.77405
572.23	2.67995
575.122	0.895325
578.015	1.44957
580.908	0.336243
583.8	0.300491
586.693	0.214325
589.586	0.589401
592.478	1.52425
595.371	0.159241
598.264	0.100494
601.156	0.868027
604.049	1.64612
606.942	1.37431
609.835	0.711563
612.727	0.807434
615.62	0.911026
618.513	0.653793
621.405	2.8669
624.298	2.66547
627.191	3.58792
630.083	4.29524
632.976	2.96726
635.869	3.68238
638.761	3.26659
641.654	1.98579
644.547	2.68297
647.44	2.57519
650.332	2.13088
653.225	2.04375
656.118	0.652954
659.01	2.56449
661.903	1.77813
664.796	2.67139
667.688	3.02374
670.581	3.63688
673.474	1.11833
676.367	2.63048
679.259	2.7808
682.152	2.57987
685.045	0.921715
687.937	0.918358
690.83	1.20632
693.723	1.92152
696.615	0.339882
699.508	0.02771
702.401	0.970825
705.294	0.5457
708.186	1.17183
711.079	0.074417
713.972	0.286911
716.864	0.68309
719.757	0.826256
722.65	0.457939
725.543	1.0427
728.435	0.549774
731.328	1.88905
734.221	0.929276
737.113	1.02914
740.006	0.723244
742.899	1.16727
745.791	1.05016
748.684	0.345184
751.577	1.31861
754.47	1.05722
757.362	0.56897
760.255	0.483292
763.148	1.10546
766.04	0.106293
768.933	1.48276
771.826	1.21684
774.718	0.635239
777.611	0.446663
780.504	1.62038
783.396	2.80435
786.289	1.98094
789.182	2.22372
792.075	2.3904
794.967	1.55615
797.86	1.88394
800.753	2.47874
803.645	4.12637
806.538	3.17116
809.431	3.70672
812.323	2.48988
815.216	3.79479
818.109	4.09787
821.002	3.147
823.894	3.74958
826.787	3.18371
829.68	3.46539
832.572	3.26528
835.465	2.63643
838.358	1.88404
841.25	2.93059
844.143	3.35126
847.036	2.9036
849.929	2.93739
852.821	3.21549
855.714	2.38397
858.607	4.12125
861.5	2.58726
864.392	3.33591
867.285	1.87326
870.178	2.22013
873.07	1.10889
875.963	1.76765
878.856	0.751656
881.748	0.977814
884.641	0.7481
887.534	0.583504
890.427	0.698143
893.319	0.189903
896.212	0.335045
899.105	0.354515
901.997	0.850906
904.89	0.172531
907.783	1.03954
910.675	0.472946
913.568	0.442184
916.461	0.370895
919.353	0.271446
922.246	1.49651
925.139	0.28331
928.032	0.121704
930.924	0.068138
933.817	0.356499
936.71	0.890442
939.602	0.79039
942.495	0.785225
945.388	1.76002
948.28	1.87533
951.173	1.9066
954.066	1.93529
956.958	2.63944
959.851	2.80429
962.744	2.00488
965.637	2.24437
968.529	2.29132
971.422	1.52833
974.315	1.29756
977.207	0.935371
980.1	1.30624
982.993	2.04847
985.885	2.38439
988.778	1.12717
991.671	1.31602
994.564	2.0938
997.456	1.01755
1000.35	1.48071
1003.24	1.69273
1006.13	2.13184
1009.03	0.930847
1011.92	2.5039
1014.81	0.677185
1017.71	0.669136
1020.6	1.1151
1023.49	0.926964
1026.38	1.57909
1029.28	0.394661
1032.17	0.749893
1035.06	0.897316
1037.95	1.99098
1040.85	1.61005
1043.74	1.75599
1046.63	2.49056
1049.53	0.357109
1052.42	1.35635
1055.31	1.9103
1058.2	2.03453
1061.1	1.54069
1063.99	1.41186
1066.88	1.90255
1069.77	1.62545
1072.67	2.57849
1075.56	1.35197
1078.45	2.7372
1081.35	1.65155
1084.24	1.32089
1087.13	1.41718
1090.02	0.589745
1092.91	2.11874
1095.81	1.29626
1098.7	0.663956
1101.59	1.32866
1104.49	0.530205
1107.38	0.335289
1110.27	0.919632
1113.16	0.744904
1116.06	1.85314
1118.95	0.323158
1121.84	1.30373
1124.73	0.83799
1127.63	1.11037
1130.52	2.61874
1133.41	1.01636
1136.31	2.94306
1139.2	1.01398
1142.09	1.42786
1144.98	0.800323
1147.88	1.37613
1150.77	0.790016
1153.66	1.52174
1156.56	0.903534
1159.45	1.61855
1162.34	0.445351
1165.23	1.06873
1168.13	1.61404
1171.02	1.55768
1173.91	1.28268
1176.8	1.14066
1179.7	2.04667
1182.59	1.1237
1185.48	1.20593
1188.38	1.8689
1191.27	0.487923
1194.16	1.08365
1197.05	0.238632
1199.94	0.437309
1202.84	1.25685
1205.73	0.981857
1208.62	1.7947
1211.52	0.075798
1214.41	2.14677
1217.3	0.805435
1220.19	2.11668
1223.09	0.18502
1225.98	0.819237
1228.87	1.14009
1231.77	0.340393
1234.66	0.03199
1237.55	0.439941
1240.44	0.92308
1243.34	0.392288
1246.23	1.16612
1249.12	0.438965
1252.01	0.743889
1254.91	0.65844
1257.8	1.3047
1260.69	0.454926
1263.59	0.358757
1266.48	0.013428
1269.37	0.992096
1272.26	0.89267
1275.16	0.036018
