Measurement: Raman, 532 nm, unoriented, Raman Data Processed
Mineral: Sadanagaite
Rruff sample: R080070
Ideal chemistry: NaCa_2_(Mg_3_Al_2_)(Si_5_Al_3_)O_22_(OH)_2_
Locality: Ilmen Mts, Chelyabinsk Oblast', Urals Region, Russia
Source: Michael Scott
Description: Unconsolidated aggregate of black to dark brown grains showing strong pleochroism
Raman shift (cm-1)	intensity
156.475	0
159.368	1.34756
162.26	3.16904
165.153	1.06447
168.046	1.33009
170.939	3.27976
173.831	3.02713
176.724	3.522
179.617	3.41894
182.509	1.87215
185.402	5.39876
188.295	2.52272
191.187	0.261078
194.08	0.340576
196.973	0.197708
199.865	0.755417
202.758	0.097275
205.651	0.938263
208.544	0.432541
211.436	1.72662
214.329	2.0338
217.222	4.1608
220.114	4.49257
223.007	2.83215
225.9	2.29689
228.792	2.39093
231.685	1.3058
234.578	2.64218
237.471	4.05385
240.363	4.70293
243.256	3.30727
246.149	3.90562
249.041	4.23685
251.934	5.20728
254.827	4.74486
257.719	3.57225
260.612	4.29485
263.505	4.43474
266.398	5.41553
269.29	5.5822
272.183	7.07097
275.076	9.03807
277.968	12.0652
280.861	10.2487
283.754	11.4683
286.647	10.9196
289.539	10.469
292.432	9.60738
295.325	5.1954
298.217	5.62979
301.11	2.96054
304.003	4.75723
306.895	2.7544
309.788	2.36369
312.681	1.78683
315.574	0.615158
318.466	0.086792
321.359	1.58282
324.252	2.55946
327.144	1.94972
330.037	0.988556
332.93	1.92451
335.822	2.8736
338.715	3.16885
341.608	3.28705
344.5	5.46176
347.393	6.89011
350.286	8.65306
353.179	8.57961
356.071	10.558
358.964	10.054
361.857	12.0821
364.749	10.577
367.642	9.5831
370.535	6.84239
373.428	4.84579
376.32	4.47208
379.213	3.67162
382.106	3.33167
384.998	1.78749
387.891	1.69844
390.784	1.62347
393.676	0.054932
396.569	0.083054
399.462	1.01694
402.354	0.219589
405.247	0.408951
408.14	0.743652
411.033	0.392761
413.925	0.517212
416.818	3.23811
419.711	4.44458
422.603	5.02354
425.496	7.29582
428.389	7.52545
431.281	5.94267
434.174	5.10179
437.067	4.30444
439.96	2.65147
442.852	2.96883
445.745	0.401871
448.638	2.57149
451.53	1.07604
454.423	0.612534
457.316	0.726486
460.209	0.284332
463.101	1.03456
465.994	0.565491
468.887	1.91618
471.779	0.720871
474.672	0.649933
477.565	1.79488
480.457	2.99063
483.35	3.62816
486.243	7.09508
489.135	6.94658
492.028	9.3542
494.921	11.3597
497.814	13.3824
500.706	15.7468
503.599	16.0867
506.492	19.4712
509.384	20.8453
512.277	21.6762
515.17	23.6613
518.063	23.8898
520.955	26.9735
523.848	28.0445
526.741	27.2416
529.633	28.4719
532.526	29.4015
535.419	29.8176
538.312	25.2139
541.204	25.237
544.097	25.4616
546.99	23.3992
549.882	21.9106
552.775	18.7703
555.668	18.8168
558.56	17.4243
561.453	14.513
564.346	12.0759
567.239	9.14987
570.131	9.88173
573.024	8.07686
575.917	7.52313
578.809	6.75964
581.702	5.89879
584.595	5.35068
587.487	3.61549
590.38	1.66881
593.273	0.663986
596.165	0.322983
599.058	0.422836
601.951	0.329987
604.843	0.758621
607.736	0.567947
610.629	1.11302
613.522	3.74844
616.414	1.61137
619.307	5.69388
622.2	4.79471
625.092	6.38695
627.985	8.07147
630.878	10.8958
633.77	11.9297
636.663	10.3395
639.556	8.03648
642.449	7.84258
645.341	4.72836
648.234	3.48721
651.127	2.55557
654.019	3.63063
656.912	3.09415
659.805	2.85742
662.697	2.43733
665.59	1.40564
668.483	2.3033
671.376	3.5316
674.268	3.04079
677.161	3.46916
680.054	4.98204
682.946	2.74455
685.839	4.42017
688.732	0.550125
691.625	0.178345
694.517	1.19119
697.41	0.064453
700.303	0.762772
703.195	1.30692
706.088	1.51327
708.981	1.81482
711.873	4.1241
714.766	4.83591
717.659	5.1329
720.552	6.80844
723.444	8.0124
726.337	10.1942
729.23	9.0706
732.122	8.69617
735.015	11.6861
737.908	11.6599
740.8	9.50412
743.693	9.05553
746.586	8.03125
749.479	6.72084
752.371	5.63493
755.264	4.30193
758.157	3.53923
761.049	4.92177
763.942	4.3738
766.835	4.62039
769.727	5.42616
772.62	5.38556
775.513	3.26643
778.405	4.65445
781.298	3.57455
784.191	4.02507
787.084	3.04128
789.976	2.45135
792.869	0.508514
795.762	1.0193
798.654	0.646179
801.547	1.12521
804.44	0.196991
807.332	1.38692
810.225	1.38286
813.118	0.295822
816.011	1.57623
818.903	1.5101
821.796	1.86635
824.689	1.94087
827.581	0.081482
830.474	0.599625
833.367	1.08855
836.26	2.50508
839.152	2.2957
842.045	1.73315
844.938	2.20834
847.83	1.38309
850.723	2.53259
853.616	2.38757
856.508	2.80977
859.401	2.17802
862.294	1.94406
865.187	2.36885
868.079	3.53375
870.972	3.85454
873.865	2.04663
876.757	1.61569
879.65	0.291443
882.543	2.14467
885.435	0.441513
888.328	0.211227
891.221	0.679489
894.114	0.638123
897.006	0.431442
899.899	0.122971
902.792	2.76241
905.684	0.56665
908.577	1.89945
911.47	1.9586
914.362	0.783463
917.255	4.50917
920.148	4.18332
923.04	3.52356
925.933	3.91252
928.826	3.54495
931.719	3.07472
934.611	3.28642
937.504	3.58917
940.397	5.50139
943.289	2.40477
946.182	3.42751
949.075	3.31674
951.967	3.88094
954.86	4.40607
957.753	2.57192
960.646	2.05479
963.538	1.47453
966.431	2.32336
969.324	1.66295
972.216	3.60288
975.109	1.38115
978.002	4.13441
980.894	1.30762
983.787	1.96692
986.68	3.66917
989.573	4.16081
992.465	3.96092
995.358	3.29067
998.251	3.18401
1001.14	4.25415
1004.04	3.92722
1006.93	1.8206
1009.82	1.95483
1012.71	3.83662
1015.61	3.84782
1018.5	3.94157
1021.39	2.27522
1024.29	0.112579
1027.18	2.1579
1030.07	0.617874
1032.96	1.48915
1035.86	0.564651
1038.75	1.10347
1041.64	0.543762
1044.53	0.235855
1047.43	0.700592
1050.32	0.904846
1053.21	1.37288
1056.11	2.20413
1059	3.08661
1061.89	1.72064
1064.78	2.63507
1067.68	3.56873
1070.57	1.16345
1073.46	4.08186
1076.35	2.13712
1079.25	1.90803
1082.14	4.09001
1085.03	2.63229
1087.92	2.12219
1090.82	2.269
1093.71	1.95511
1096.6	1.58992
1099.49	2.53124
1102.39	2.58269
1105.28	0.741608
1108.17	0.14151
1111.07	1.17462
1113.96	0.950592
1116.85	0.067886
1119.74	0.712585
1122.64	0.37468
1125.53	0.208832
1128.42	1.02862
1131.32	1.88727
1134.21	1.59866
1137.1	1.70418
1139.99	3.88626
1142.89	0.96312
1145.78	1.53632
1148.67	2.21387
1151.56	2.65713
1154.46	0.236206
1157.35	3.66502
1160.24	1.9474
1163.13	1.29779
1166.03	0.89357
1168.92	2.06421
1171.81	3.4588
1174.7	1.44229
1177.6	1.02978
1180.49	1.49565
1183.38	2.20677
1186.28	4.16138
1189.17	2.1573
1192.06	1.4997
1194.95	2.49255
1197.85	0.999435
1200.74	1.23013
1203.63	0.682236
1206.53	0.820694
1209.42	1.53873
1212.31	1.55803
1215.2	0.696915
1218.1	1.43077
1220.99	0.284073
1223.88	1.49262
1226.77	0.4617
1229.67	2.98026
1232.56	1.93544
1235.45	1.05373
1238.35	2.99973
1241.24	1.68379
1244.13	0.766602
1247.02	1.20923
1249.92	1.68051
1252.81	1.30414
1255.7	3.46549
1258.59	1.28731
1261.49	0.904953
1264.38	2.31624
1267.27	0.131042
1270.16	1.21733
1273.06	1.53859
1275.95	1.3942
