Measurement: Raman, 532 nm, unoriented, Raman Data Processed
Mineral: Safflorite
Rruff sample: R100115
Ideal chemistry: (Co^2+^,Fe^2+^,Ni^2+^)As_2_
Locality: Hudson Bay (Rustex) mine, Gowganda area, Ontario, Canada
Source: Robert Woodside
Description: Steel gray elongated tablets arranged as sixling twins
Raman shift (cm-1)	intensity
139.198	0
142.09	2.01803
144.983	0.131678
147.876	2.87242
150.768	4.14238
153.661	5.29948
156.554	1.20315
159.447	3.24383
162.339	3.48004
165.232	9.38243
168.125	7.79548
171.017	2.0654
173.91	3.81441
176.803	3.4356
179.696	3.86405
182.588	3.32671
185.481	3.02055
188.374	2.15151
191.266	1.89623
194.159	1.07076
197.052	1.31238
199.945	0.323318
202.837	1.09887
205.73	0.858126
208.623	0.101439
211.515	0.45525
214.408	1.47245
217.301	3.59493
220.193	3.78741
223.086	5.78776
225.979	5.80719
228.871	5.99576
231.764	8.6059
234.657	8.52066
237.55	0.306715
240.442	1.3645
243.335	1.97758
246.228	3.9171
249.12	3.00126
252.013	3.68338
254.906	4.83603
257.798	7.052
260.691	7.84119
263.584	2.64435
266.477	2.49538
269.369	1.12
272.262	0.791395
275.155	1.21637
278.048	0.967854
280.94	0.668629
283.833	0.623706
286.726	0.358182
289.618	1.31441
292.511	1.67791
295.404	1.42323
298.296	1.84168
301.189	0.197268
304.082	0.304096
306.974	0.343416
309.867	2.27823
312.76	0.023743
315.653	2.21017
318.545	2.53425
321.438	2.05521
324.331	2.30101
327.223	2.27497
330.116	0.633356
333.009	2.23205
335.901	0.28688
338.794	1.55714
341.687	0.718918
344.58	2.47365
347.472	2.57168
350.365	0.932759
353.258	0.286132
356.15	1.1952
359.043	0.480704
361.936	0.842494
364.829	1.84467
367.721	1.25863
370.614	1.24635
373.507	1.10159
376.399	0.599216
379.292	1.06342
382.185	0.838142
385.077	0.417363
387.97	0.372453
390.863	1.67239
393.756	0.693666
396.648	1.1019
399.541	2.34658
402.434	1.53592
405.326	2.67531
408.219	0.7065
411.112	3.20266
414.005	1.06286
416.897	1.16163
419.79	1.80441
422.683	0.722899
425.575	0.359726
428.468	1.34151
431.361	1.55224
434.253	2.55671
437.146	0.97615
440.039	0.966117
442.932	1.67252
445.824	0.840549
448.717	1.58974
451.61	1.61606
454.502	1.82127
457.395	2.16834
460.288	2.41614
463.18	0.170581
466.073	1.41301
468.966	1.75599
471.859	0.640454
474.751	2.18201
477.644	2.16745
480.537	0.552159
483.429	1.53802
486.322	1.81535
489.215	0.146204
492.108	1.09713
495	0.877051
497.893	1.58345
500.786	0.747201
503.678	1.40492
506.571	1.39171
509.464	0.949805
512.356	0.75533
515.249	0.675128
518.142	0.851459
521.034	2.23565
523.927	2.67324
526.82	0.292208
529.713	0.40562
532.605	0.566256
535.498	1.43501
538.391	1.33802
541.283	1.8072
544.176	1.35304
547.069	1.22809
549.962	1.21896
552.854	0.756632
555.747	0.422831
558.64	0.753116
561.532	2.29636
564.425	0.265913
567.318	1.03363
570.21	1.49193
573.103	1.10776
575.996	1.03441
578.889	0.584472
581.781	0.221132
584.674	0.86835
587.567	0.762044
590.459	0.992073
593.352	1.53248
596.245	1.07413
599.138	1.32784
602.03	0.821178
604.923	0.688498
607.816	1.42908
610.708	1.8681
613.601	1.99388
616.494	0.540348
619.386	0.256303
622.279	1.25811
625.172	2.35064
628.064	0.226486
630.957	0.879419
633.85	1.6806
636.743	1.25739
639.635	0.6278
642.528	1.1124
645.421	0.862234
648.313	1.08825
651.206	1.36397
654.099	0.79126
656.992	1.10221
659.884	1.24589
662.777	0.602841
665.67	1.07009
668.562	0.502964
671.455	1.83176
674.348	0.453238
677.24	0.611711
680.133	0.690529
683.026	2.13814
685.919	0.208198
688.811	0.52423
691.704	0.433832
694.597	0.124817
697.489	1.21759
700.382	2.18766
703.275	0.85078
706.168	0.782279
709.06	1.17863
711.953	0.378756
714.846	1.45243
717.738	1.37595
720.631	1.78855
723.524	1.04415
726.416	1.91346
729.309	0.189795
732.202	1.96365
735.095	1.70938
737.987	0.81004
740.88	2.7584
743.773	0.364568
746.665	0.3167
749.558	1.60549
752.451	1.44119
755.343	2.03457
758.236	0.868851
761.129	1.76274
764.022	2.13796
766.914	3.12197
769.807	0.341713
772.7	1.0218
775.592	2.17105
778.485	2.43358
781.378	0.97431
784.27	1.63887
787.163	2.45608
790.056	2.41636
792.949	1.37044
795.841	1.5022
798.734	1.32352
801.627	1.1427
804.519	1.80522
807.412	1.49786
810.305	1.47285
813.198	2.09022
816.09	1.50286
818.983	1.51252
821.876	0.563987
824.768	1.93478
827.661	1.51701
830.554	1.07378
833.447	2.52496
836.339	1.19423
839.232	1.21539
842.125	1.47249
845.017	1.7479
847.91	2.18378
850.803	1.26724
853.695	2.30298
856.588	0.732423
859.481	0.06691
862.374	2.6981
865.266	1.95131
868.159	0.759712
871.052	0.958357
873.944	1.46488
876.837	1.19193
879.73	0.4878
882.622	0.55591
885.515	0.240541
888.408	0.225607
891.301	0.021091
894.193	1.39969
897.086	0.319335
899.979	0.43984
902.871	1.12192
905.764	0.089934
908.657	0.389361
911.549	0.69302
914.442	1.1161
917.335	0.695338
920.227	0.666649
923.12	0.510976
926.013	1.10951
928.906	0.155101
931.798	0.788804
934.691	0.075319
937.584	1.56701
940.476	2.64225
943.369	0.762513
946.262	0.181664
949.155	0.424924
952.047	2.44708
954.94	1.21713
957.833	1.46426
960.725	1.14921
963.618	1.1623
966.511	1.03035
969.404	1.58337
972.296	0.102746
975.189	0.340845
978.082	0.045156
980.974	1.65049
983.867	0.250625
986.76	0.630859
989.653	0.236496
992.545	0.147013
995.438	0.484496
998.331	0.824018
1001.22	0.566312
1004.12	1.33794
1007.01	1.3916
1009.9	1.60204
1012.79	2.38037
1015.69	1.28433
1018.58	0.875943
1021.47	1.81146
1024.37	1.42196
1027.26	2.39738
1030.15	1.18486
1033.04	1.88804
1035.94	0.1431
1038.83	1.60231
1041.72	0.896337
1044.61	1.43277
1047.51	1.20454
1050.4	0.416557
1053.29	1.11103
1056.18	0.317147
1059.08	0.24311
1061.97	1.16451
1064.86	2.24614
1067.76	1.48281
1070.65	1.90499
1073.54	0.495553
1076.43	1.49898
1079.33	2.57276
1082.22	2.05967
1085.11	0.323435
1088	2.3487
1090.9	0.231785
1093.79	1.38437
1096.68	1.03164
1099.58	0.824039
1102.47	1.03621
1105.36	1.49205
1108.25	1.49759
1111.15	1.62009
1114.04	0.190778
1116.93	0.409663
1119.82	1.25758
1122.72	0.758361
1125.61	1.70554
1128.5	0.468098
1131.39	0.584383
1134.29	0.532234
1137.18	1.29861
1140.07	1.75842
1142.97	1.89502
1145.86	0.906894
1148.75	1.03813
1151.64	0.332859
1154.54	0.34289
1157.43	1.58192
1160.32	1.00764
1163.21	0.828517
1166.11	1.5715
1169	1.86745
1171.89	0.771373
1174.79	1.74576
1177.68	0.874624
1180.57	1.19287
1183.46	1.75804
1186.36	2.42707
1189.25	1.79938
1192.14	1.10818
1195.03	2.09187
1197.93	1.23858
1200.82	1.26453
1203.71	0.60304
1206.61	1.3609
1209.5	0.137259
1212.39	1.36655
1215.28	2.37859
1218.18	0.453455
1221.07	0.167568
1223.96	0.334591
1226.85	1.37743
1229.75	1.34245
1232.64	1.07929
1235.53	1.98123
1238.42	1.31596
1241.32	0.564688
1244.21	1.80167
1247.1	2.28247
1250	1.08647
1252.89	2.21916
1255.78	0.621012
1258.67	0.857892
1261.57	1.72234
1264.46	1.81197
1267.35	1.28278
1270.24	1.44788
1273.14	0.51174
1276.03	0.668055
1278.92	2.06314
1281.82	1.32144
1284.71	1.24299
1287.6	0.121305
1290.49	0.948816
1293.39	0.798246
