Measurement: Raman, 780 nm, unoriented, Raman Data Processed
Mineral: Sakhaite
Rruff sample: R060897
Ideal chemistry: Ca_48_Mg_16_Al(SiO_3_OH)_4_(CO_3_)_16_(BO_3_)_28_(H_2_O)_3_(HCl)_3_
Locality: Solongo, Buryatiya, Transbaikal, Russia
Source: Michael Scott
Description: Colorless to pale brown massive
Raman shift (cm-1)	intensity
112.831	0
116.205	0.748505
119.58	7.7637
122.955	14.1264
126.33	25.2275
129.705	38.4375
133.079	51.3568
136.454	67.226
139.829	79.1685
143.204	90.3384
146.579	101.326
149.953	111.829
153.328	120.357
156.703	123.472
160.078	119.784
163.453	116.28
166.828	108.165
170.202	104.314
173.577	94.6409
176.952	87.8158
180.327	76.7104
183.702	67.7961
187.077	57.1798
190.451	54.1225
193.826	51.4799
197.201	50.5342
200.576	46.0969
203.951	44.5503
207.325	46.5537
210.7	39.3421
214.075	36.2062
217.45	27.623
220.825	27.803
224.199	22.8183
227.574	18.1398
230.949	12.7709
234.324	8.76685
237.699	4.0253
241.073	2.09528
244.448	1.76453
247.823	4.36702
251.198	2.78735
254.573	2.1821
257.948	1.36525
261.322	1.18814
264.697	7.84293
268.072	14.2038
271.447	21.3814
274.822	26.1265
278.197	34.7614
281.571	44.0689
284.946	44.9583
288.321	49.1508
291.696	52.2734
295.071	58.9137
298.445	58.6545
301.82	63.4447
305.195	62.653
308.57	61.0446
311.945	59.8648
315.32	54.9581
318.694	53.4155
322.069	46.0147
325.444	41.22
328.819	34.9624
332.194	30.196
335.568	25.9053
338.943	22.3378
342.318	16.5312
345.693	13.5633
349.068	13.952
352.442	7.14046
355.817	4.54085
359.192	2.34871
362.567	3.92375
365.942	2.98
369.317	5.74101
372.691	5.04282
376.066	6.70964
379.441	4.96855
382.816	8.58952
386.191	8.3322
389.565	12.0064
392.94	11.4354
396.315	11.1658
399.69	8.78291
403.065	7.52676
406.44	9.07057
409.814	4.04961
413.189	4.33897
416.564	3.85446
419.939	2.00183
423.314	1.77606
426.688	0.837952
430.063	2.25653
433.438	0.671013
436.813	1.90078
440.188	1.92451
443.562	4.17995
446.937	1.0242
450.312	0.991974
453.687	1.27835
457.062	1.47462
460.437	2.54277
463.811	3.52203
467.186	3.65102
470.561	3.04363
473.936	1.71139
477.311	2.64671
480.685	1.22791
484.06	0.971573
487.435	0.964218
490.81	1.05265
494.185	1.85037
497.56	3.56321
500.934	2.22918
504.309	1.95494
507.684	1.44361
511.059	1.26689
514.434	1.03413
517.808	3.10037
521.183	0.803436
524.558	5.95948
527.933	3.81643
531.308	4.62109
534.683	2.66668
538.057	2.11305
541.432	1.86098
544.807	2.22585
548.182	2.40211
551.557	0.027222
554.932	1.831
558.306	1.0774
561.681	0.221619
565.056	0.171448
568.431	1.77319
571.806	1.16497
575.18	1.35014
578.555	1.98554
581.93	1.73158
585.305	2.69731
588.68	4.82301
592.054	7.27813
595.429	7.35608
598.804	10.6149
602.179	11.9586
605.554	14.1842
608.928	17.2999
612.303	18.1301
615.678	22.7784
619.053	24.9204
622.428	27.5572
625.803	28.2378
629.177	30.8406
632.552	29.155
635.927	29.1267
639.302	32.257
642.677	32.017
646.052	29.2402
649.426	28.762
652.801	24.4214
656.176	19.2043
659.551	11.966
662.926	7.05589
666.3	4.2951
669.675	1.00121
673.05	0.659805
676.425	0.1549
679.8	1.12779
683.174	0.652893
686.549	0.081581
689.924	0.2211
693.299	3.64638
696.674	3.62678
700.049	5.08315
703.423	8.62246
706.798	14.8688
710.173	24.686
713.548	33.5747
716.923	41.7769
720.298	53.2129
723.672	56.8761
727.047	52.2431
730.422	44.6519
733.797	36.9175
737.172	29.8983
740.546	21.7259
743.921	16.3493
747.296	8.7851
750.671	5.81167
754.046	3.96259
757.42	3.09452
760.795	2.05081
764.17	2.69002
767.545	2.05132
770.92	0.66798
774.295	0.292095
777.669	0.84026
781.044	0.845055
784.419	3.2297
787.794	2.13586
791.169	1.52835
794.543	3.39951
797.918	1.09718
801.293	1.67603
804.668	1.50441
808.043	1.60102
811.418	2.60893
814.792	3.67708
818.167	3.40092
821.542	3.37075
824.917	2.43902
828.292	4.3623
831.666	3.72278
835.041	7.52842
838.416	7.67241
841.791	9.60952
845.166	13.7669
848.54	13.6836
851.915	18.0054
855.29	16.1585
858.665	12.3197
862.04	9.41758
865.415	5.4203
868.789	3.67096
872.164	3.09878
875.539	0.343102
878.914	1.41996
882.289	1.07745
885.663	0.158321
889.038	1.32555
892.413	0.396416
895.788	0.629169
899.163	1.02503
902.538	1.27161
905.912	3.77753
909.287	2.71677
912.662	6.20569
916.037	6.41641
919.412	10.055
922.786	12.7653
926.161	17.5713
929.536	21.6313
932.911	27.7617
936.286	31.7923
939.66	37.7737
943.035	43.9653
946.41	55.5581
949.785	67.5965
953.16	77.0493
956.535	81.6178
959.909	88.3504
963.284	82.4381
966.659	71.6112
970.034	58.2758
973.409	43.6044
976.784	33.1213
980.158	24.8622
983.533	18.152
986.908	11.2234
990.283	9.67369
993.658	8.99431
997.032	6.93343
1000.41	5.83121
1003.78	4.31865
1007.16	4.19802
1010.53	3.06583
1013.91	8.33657
1017.28	8.84396
1020.66	11.6767
1024.03	14.1707
1027.41	15.962
1030.78	18.1319
1034.15	17.348
1037.53	14.7678
1040.9	10.8448
1044.28	9.73144
1047.65	6.56263
1051.03	4.85371
1054.4	4.14604
1057.78	3.52192
1061.15	1.36407
1064.53	1.0759
1067.9	1.40034
1071.28	2.95091
1074.65	0.900688
1078.03	0.526741
1081.4	0.046211
1084.78	8.01801
1088.15	15.8872
1091.53	23.1008
1094.9	39.5733
1098.28	55.7971
1101.65	77.6535
1105.03	105.179
1108.4	133.636
1111.78	164.112
1115.15	196.095
1118.53	226.689
1121.9	250.505
1125.28	266.482
1128.65	258.276
1132.03	223.711
1135.4	170.684
1138.78	109.136
1142.15	57.0968
1145.52	28.3796
1148.9	14.6449
1152.27	10.4289
1155.65	10.0677
1159.02	16.4432
1162.4	16.1709
1165.77	15.873
1169.15	18.7043
1172.52	22.1326
1175.9	20.4266
1179.27	16.523
1182.65	16.3595
1186.02	16.1021
1189.4	11.0869
1192.77	5.36392
1196.15	7.04645
1199.52	3.93826
1202.9	1.53824
1206.27	3.539
1209.65	1.67172
1213.02	0.778076
1216.4	1.99686
1219.77	6.71472
1223.14	9.16361
1226.52	11.5131
1229.89	17.5661
1233.27	25.4883
1236.64	27.0771
1240.02	36.0158
1243.39	39.9994
1246.77	39.9386
1250.14	41.8415
1253.52	42.0995
1256.89	34.876
1260.27	35.5658
1263.64	26.8182
1267.02	17.6953
1270.39	16.381
1273.77	8.21588
1277.14	2.80554
1280.52	4.52866
1283.89	4.45102
1287.27	2.47925
