Measurement: Raman, 532 nm, unoriented, Raman Data Processed
Mineral: Sakhaite
Rruff sample: R060897
Ideal chemistry: Ca_48_Mg_16_Al(SiO_3_OH)_4_(CO_3_)_16_(BO_3_)_28_(H_2_O)_3_(HCl)_3_
Locality: Solongo, Buryatiya, Transbaikal, Russia
Source: Michael Scott
Description: Colorless to pale brown massive
Raman shift (cm-1)	intensity
249.612	0
252.505	6.14429
255.397	0.036621
258.29	4.02069
261.183	7.33539
264.075	8.30926
266.968	12.1751
269.861	24.2422
272.754	37.256
275.646	55.9955
278.539	78.1511
281.432	96.9385
284.324	115.535
287.217	117.098
290.11	130.433
293.002	145.826
295.895	151.263
298.788	160.463
301.681	173.474
304.573	190.289
307.466	203.191
310.359	208.246
313.251	209.498
316.144	209.278
319.037	203.557
321.93	186.621
324.822	165.632
327.715	139.755
330.608	115.653
333.5	88.4433
336.393	66.7236
339.286	42.0939
342.178	33.6808
345.071	13.7033
347.964	2.85553
350.856	5.48926
353.749	9.58185
356.642	1.25269
359.535	1.1004
362.427	7.01898
365.32	22.8076
368.213	34.6461
371.105	53.2106
373.998	65.9872
376.891	97.5949
379.784	117.037
382.676	136.062
385.569	152.691
388.462	168.68
391.354	179.397
394.247	176.608
397.14	176.476
400.032	172.106
402.925	156.934
405.818	148.001
408.711	133.713
411.603	119.323
414.496	107.739
417.389	97.9344
420.281	87.1276
423.174	79.0477
426.067	70.1963
428.959	69.1268
431.852	60.0303
434.745	56.4125
437.637	56.471
440.53	48.5456
443.423	45.831
446.316	41.4809
449.208	32.1294
452.101	30.5917
454.994	26.9356
457.886	24.4954
460.779	24.4538
463.672	25.8685
466.565	22.7654
469.457	21.8982
472.35	15.5485
475.243	12.6796
478.135	8.70657
481.028	6.14725
483.921	1.40897
486.813	4.11343
489.706	1.8331
492.599	2.43133
495.491	1.79337
498.384	2.18692
501.277	3.84003
504.17	2.79768
507.062	5.28148
509.955	6.65109
512.848	6.20567
515.74	10.451
518.633	6.9684
521.526	14.5957
524.418	18.8402
527.311	15.8752
530.204	19.0015
533.097	19.9053
535.989	16.716
538.882	16.5994
541.775	13.6912
544.667	12.1992
547.56	4.60059
550.453	1.24574
553.346	2.13461
556.238	2.27908
559.131	1.64237
562.024	0.439651
564.916	2.66605
567.809	5.93131
570.702	3.27389
573.594	5.37721
576.487	8.02995
579.38	9.86696
582.273	9.38005
585.165	14.1175
588.058	24.7362
590.951	32.7683
593.843	43.0701
596.736	50.2924
599.629	57.6678
602.521	69.2343
605.414	79.6349
608.307	93.5284
611.199	105.94
614.092	120.863
616.985	136.642
619.878	152.742
622.77	172.567
625.663	189.257
628.556	202.887
631.448	219.226
634.341	243.458
637.234	266.606
640.126	299.144
643.019	331.276
645.912	356.231
648.805	369.531
651.697	347.4
654.59	292.707
657.483	223.405
660.375	155.974
663.268	102.104
666.161	64.865
669.053	38.767
671.946	23.0132
674.839	15.9365
677.732	5.27861
680.624	0.96225
683.517	0.798599
686.41	2.7693
689.302	3.53873
692.195	0.820496
695.088	3.94682
697.981	4.66464
700.873	14.1842
703.766	26.7613
706.659	49.1558
709.551	79.6497
712.444	116.301
715.337	158.729
718.229	215.956
721.122	277.375
724.015	313.046
726.907	308.647
729.8	269.157
732.693	229.786
735.586	200.412
738.478	168.039
741.371	129.861
744.264	93.8436
747.156	69.266
750.049	45.7632
752.942	31.7096
755.834	25.3342
758.727	14.5279
761.62	17.3424
764.513	17.8195
767.405	14.3811
770.298	12.1034
773.191	10.0868
776.083	11.4516
778.976	10.4549
781.869	6.84593
784.761	2.88878
787.654	2.58081
790.547	2.04922
793.439	0.899689
796.332	1.17418
799.225	0.312225
802.118	2.85605
805.01	3.3876
807.903	3.84973
810.796	1.72858
813.688	0.746643
816.581	5.33795
819.474	4.90854
822.366	9.11348
825.259	8.06949
828.152	11.6498
831.045	12.7254
833.937	14.1561
836.83	19.7416
839.723	27.8295
842.615	41.2259
845.508	63.5287
848.401	83.8792
851.293	102.975
854.186	98.1301
857.079	92.233
859.972	74.9842
862.864	58.9124
865.757	38.2939
868.65	18.7872
871.542	0.62326
874.435	2.75482
877.328	5.56079
880.221	5.73593
883.113	4.74527
886.006	3.6575
888.899	1.08069
891.791	6.65161
894.684	10.925
897.577	19.4813
900.469	28.1149
903.362	38.2787
906.255	54.1997
909.148	60.9552
912.04	59.4251
914.933	66.4686
917.826	82.1947
920.718	104.546
923.611	131.237
926.504	157.716
929.396	178.68
932.289	203.223
935.182	233.897
938.074	272.216
940.967	324.772
943.86	379.199
946.753	445.652
949.645	511.442
952.538	589.758
955.431	668.259
958.323	725.862
961.216	753.282
964.109	726.837
967.001	645.403
969.894	534.287
972.787	423.582
975.68	325.791
978.572	250.232
981.465	192.524
984.358	145.388
987.25	109.934
990.143	82.6537
993.036	62.8665
995.928	45.4448
998.821	33.8314
1001.71	20.9369
1004.61	17.4895
1007.5	13.5285
1010.39	8.60821
1013.28	8.71497
1016.18	8.51758
1019.07	8.39429
1021.96	16.5371
1024.86	22.616
1027.75	35.0055
1030.64	48.4345
1033.53	70.459
1036.43	79.6803
1039.32	50.9553
1042.21	19.1929
1045.1	5.82397
1048	1.59894
1050.89	3.8656
1053.78	5.02014
1056.67	5.28992
1059.57	7.37189
1062.46	6.10663
1065.35	3.56244
1068.25	5.1001
1071.14	0.226044
1074.03	4.54514
1076.92	17.205
1079.82	29.6473
1082.71	57.7294
1085.6	129.08
1088.49	183.315
1091.39	215.424
1094.28	332.543
1097.17	458.422
1100.07	615.976
1102.96	806.055
1105.85	1025.67
1108.74	1242.82
1111.64	1477.05
1114.53	1732.42
1117.42	1976.44
1120.32	2236.55
1123.21	2472.24
1126.1	2622.16
1128.99	2646.99
1131.88	2531.39
1134.78	2242.87
1137.67	1769.98
1140.56	1219.16
1143.46	747.331
1146.35	450.223
1149.24	285.152
1152.13	203.949
1155.03	169.391
1157.92	151.997
1160.81	139.397
1163.7	130.956
1166.6	122.688
1169.49	109.35
1172.38	93.002
1175.28	78.0113
1178.17	67.7273
1181.06	53.17
1183.95	37.1789
1186.85	26.1991
1189.74	17.441
1192.63	9.66132
1195.53	7.0849
1198.42	4.8956
1201.31	6.2363
1204.2	2.60904
1207.1	2.04648
1209.99	1.07709
1212.88	2.82056
1215.77	2.41296
1218.67	3.74051
1221.56	2.39609
1224.45	1.12878
1227.34	0.926331
1230.24	1.74228
1233.13	1.91315
1236.02	2.83789
1238.91	1.98953
1241.81	3.39737
1244.7	2.68845
1247.59	4.29251
1250.49	1.02441
1253.38	1.80923
1256.27	1.79157
1259.16	3.04404
1262.06	4.96985
1264.95	12.8821
1267.84	7.94684
1270.73	16.0985
1273.63	18.1001
1276.52	19.9933
1279.41	19.8454
1282.31	18.069
1285.2	17.4891
1288.09	15.8481
1290.98	10.9198
1293.88	12.2652
1296.77	10.2193
1299.66	9.12488
1302.56	0.289581
