Measurement: Raman, 532 nm, unoriented, Raman Data Processed
Mineral: Samarskite-(Y)
Rruff sample: R070161
Ideal chemistry: YFe^3+^Nb^5+^_2_O_8_
Locality: Tveit mine, Iveland, Setesdal Valley, Aust-Agder, Norway
Source: James Shigley
Description: Black vitreous dense prismatic crystal
Raman shift (cm-1)	intensity
160.788	0
163.681	7.24414
166.574	6.38769
169.466	106.458
172.359	87.9822
175.252	88.7529
178.144	75.9898
181.037	105.955
183.93	71.4766
186.822	102.213
189.715	108.963
192.608	97.8643
195.501	129.542
198.393	109.749
201.286	91.1877
204.179	99.4163
207.071	105.022
209.964	105.367
212.857	105.115
215.75	71.6472
218.642	52.7212
221.535	98.2485
224.428	60.7046
227.32	63.0923
230.213	39.4695
233.106	60.5347
235.999	45.8745
238.891	17.7402
241.784	86.9216
244.677	76.0486
247.569	52.8606
250.462	46.248
253.355	89.1562
256.247	69.4812
259.14	48.7817
262.033	62.9126
264.925	81.7505
267.818	71.2764
270.711	25.05
273.604	74.5261
276.496	67.0523
279.389	51.6511
282.282	53.533
285.174	58.5667
288.067	66.2871
290.96	41.9893
293.853	59.4915
296.745	35.7881
299.638	60.7573
302.531	17.3259
305.423	34.8367
308.316	3.04443
311.209	14.7378
314.101	42.7886
316.994	38.6897
319.887	42.7312
322.779	27.6182
325.672	8.9585
328.565	5.05591
331.458	23.947
334.35	0.306152
337.243	14.522
340.136	30.4111
343.028	11.5249
345.921	12.6165
348.814	32.0928
351.707	31.7158
354.599	42.6562
357.492	20.9995
360.385	48.405
363.277	23.98
366.17	21.322
369.063	2.28784
371.955	27.7617
374.848	63.9297
377.741	94.1201
380.634	23.6462
383.526	34.3481
386.419	42.9751
389.312	119.324
392.204	21.8162
395.097	0.820801
397.99	46.4414
400.882	6.46826
403.775	34.6685
406.668	27.416
409.56	24.5356
412.453	60.9895
415.346	32.0657
418.239	82.5537
421.131	58.6995
424.024	73.8398
426.917	14.728
429.81	41.23
432.702	44.5054
435.595	72.4045
438.488	46.436
441.38	5.52075
444.273	10.1091
447.166	10.1313
450.058	26.0244
452.951	6.53516
455.844	41.7918
458.736	37.3037
461.629	78.2234
464.522	6.27026
467.415	59.9846
470.307	32.7212
473.2	6.03613
476.093	46.1326
478.985	68.0461
481.878	40.1853
484.771	37.7832
487.663	36.2095
490.556	48.7876
493.449	51.7285
496.342	29.477
499.234	24.8232
502.127	12.9673
505.02	30.5308
507.912	18.2417
510.805	34.7451
513.698	24.3359
516.591	37.2417
519.483	58.9048
522.376	29.5698
525.269	14.5654
528.161	11.5107
531.054	4.91309
533.947	0.602539
536.839	10.1577
539.732	14.9453
542.625	23.7939
545.518	44.5459
548.41	40.4297
551.303	32.2041
554.196	10.5723
557.088	3.97852
559.981	25.9155
562.874	38.6768
565.766	44.4888
568.659	67.2896
571.552	46.644
574.444	58.374
577.337	68.4624
580.23	37.9722
583.123	44.3975
586.015	83.4648
588.908	57.3467
591.801	67.959
594.693	75.7602
597.586	94.0845
600.479	41.708
603.372	80.9146
606.264	69.4902
609.157	47.231
612.05	43.2168
614.942	90.7212
617.835	91.2095
620.728	101.654
623.62	87.5049
626.513	80.478
629.406	92.0908
632.299	62.9512
635.191	102.744
638.084	92.8613
640.977	46.0757
643.869	109.106
646.762	85.9907
649.655	88.0068
652.548	71.6719
655.44	69.791
658.333	70.0078
661.226	43.3369
664.118	50.5898
667.011	37.7632
669.904	66.7158
672.796	28.5913
675.689	20.4907
678.582	18.3286
681.475	19.3848
684.367	21.7158
687.26	12.8203
690.153	23.7617
693.045	34.2598
695.938	16.7983
698.831	55.7051
701.723	2.84863
704.616	34.2852
707.509	0.320313
710.402	31.9106
713.294	35.6699
716.187	2.3208
719.08	69.8481
721.972	19.7588
724.865	47.2612
727.758	56.1265
730.65	30.3315
733.543	48.7827
736.436	49.6206
739.329	95.4551
742.221	51.0059
745.114	70.5073
748.007	87.209
750.899	22.9116
753.792	83.8852
756.685	99.4541
759.577	140.379
762.47	158.968
765.363	133.065
768.256	203.628
771.148	206.602
774.041	235.639
776.934	263.166
779.826	230.524
782.719	260.454
785.612	316.984
788.505	308.174
791.397	341.053
794.29	344.646
797.183	349.152
800.075	367.385
802.968	359.297
805.861	363.058
808.753	426.738
811.646	392.555
814.539	406.421
817.432	372.205
820.324	336.233
823.217	304.497
826.11	313.809
829.002	290.515
831.895	265.945
834.788	282.37
837.68	263.505
840.573	314.741
843.466	272.004
846.359	214.44
849.251	193.785
852.144	161.449
855.037	185.221
857.929	157.053
860.822	148.489
863.715	89.3091
866.607	105.634
869.5	40.5444
872.393	73.1357
875.285	49.9219
878.178	20.3599
881.071	25.0317
883.964	50.0786
886.856	19.647
889.749	17.7817
892.642	43.6973
895.534	43.9468
898.427	15.4097
901.32	41.6807
904.212	3.35938
907.105	43.4937
909.998	25.1025
912.891	8.93262
915.783	1.85596
918.676	15.1606
921.569	3.19922
924.461	49.0889
927.354	19.7202
930.247	29.0283
933.139	10.8989
936.032	49.6157
938.925	48.292
941.818	7.50244
944.71	16.4482
947.603	40.648
950.496	17.3633
953.388	65.5078
956.281	16.8672
959.174	17.6977
962.067	104.612
964.959	97.905
967.852	38.071
970.745	47.8884
973.637	85.1687
976.53	77.3948
979.423	45.831
982.315	95.479
985.208	45.2017
988.101	124.158
990.994	120.683
993.886	64.0273
996.779	93.511
999.672	119.023
1002.56	76.9468
1005.46	69.4658
1008.35	53.0996
1011.24	74.1499
1014.13	81.9099
1017.03	69.2346
1019.92	88.2305
1022.81	80.4661
1025.71	63.7727
1028.6	17.9087
1031.49	79.6489
1034.38	73.0383
1037.28	87.4526
1040.17	64.8833
1043.06	91.4019
1045.95	53.3286
1048.85	39.4731
1051.74	44.3169
1054.63	39.5015
1057.53	38.2212
1060.42	50.4575
1063.31	42.9067
1066.2	35.144
1069.1	68.5244
1071.99	35.564
1074.88	56.7749
1077.78	55.8193
1080.67	67.4707
1083.56	17.4707
1086.45	3.10693
1089.35	25.7695
1092.24	52.687
1095.13	35.8545
1098.02	48.8184
1100.92	12.8813
1103.81	16.001
1106.7	50.1338
1109.59	48.1831
1112.49	39.8599
1115.38	75.604
1118.27	19.9751
1121.16	48.7803
1124.06	29.9658
1126.95	61.3491
1129.84	45.127
1132.74	57.7466
1135.63	43.9585
1138.52	36.1274
1141.41	40.6694
1144.31	50.4751
1147.2	43.144
1150.09	22.1641
1152.98	75.3311
1155.88	42.1108
1158.77	72.7681
1161.66	50.9321
1164.56	77.9512
1167.45	21.6611
1170.34	56.2339
1173.23	3.5708
1176.13	7.76856
1179.02	80.4653
1181.91	5.55078
1184.81	28.0855
1187.7	78.1397
1190.59	1.15576
1193.48	79.4058
1196.38	3.1792
1199.27	48.2036
1202.16	41.4829
1205.05	29.6079
1207.95	26.023
1210.84	1.72998
1213.73	11.042
1216.62	40.5078
1219.52	74.1841
1222.41	35.5864
1225.3	45.0342
1228.19	1.74853
1231.09	20.249
1233.98	15.3442
1236.87	14.9917
1239.77	51.4761
1242.66	90.3618
1245.55	36.0581
1248.44	6.80908
1251.34	46.6489
1254.23	56.4624
1257.12	69.001
1260.02	71.8794
1262.91	15.6943
1265.8	32.6035
1268.69	34.9443
1271.59	50.501
1274.48	22.8066
1277.37	86.8828
1280.26	39.1875
1283.16	58.8828
1286.05	71.2847
1288.94	79.0102
1291.83	23.2837
1294.73	71.0615
1297.62	35.9263
1300.51	10.7339
