Measurement: Raman, 785 nm, unoriented, Raman Data Processed
Mineral: Samarskite-(Y)
Rruff sample: R070161
Ideal chemistry: YFe^3+^Nb^5+^_2_O_8_
Locality: Tveit mine, Iveland, Setesdal Valley, Aust-Agder, Norway
Source: James Shigley
Description: Black vitreous dense prismatic crystal
Raman shift (cm-1)	intensity
168.075	0
170.968	64.7815
173.86	49.9331
176.753	6.09399
179.646	44.1404
182.538	40.6128
185.431	45.2625
188.324	107.867
191.216	127.524
194.109	109.978
197.002	142.259
199.894	150.256
202.787	154.802
205.68	148.404
208.573	108.468
211.465	67.6516
214.358	97.6829
217.251	79.9233
220.143	97.1231
223.036	96.3455
225.929	85.8735
228.821	86.2659
231.714	81.5598
234.607	41.7617
237.5	38.7144
240.392	91.4038
243.285	67.9092
246.178	88.1255
249.07	88.7629
251.963	51.626
254.856	70.8791
257.748	49.4614
260.641	52.1587
263.534	47.0359
266.427	75.707
269.319	35.3369
272.212	47.6594
275.105	60.4526
277.997	26.9002
280.89	67.1372
283.783	0.166992
286.675	1.54028
289.568	61.8723
292.461	56.6592
295.354	45.3655
298.246	30.2715
301.139	41.7461
304.032	75.3035
306.924	78.21
309.817	90.2581
312.71	24.7651
315.602	27.7031
318.495	12.1538
321.388	51.2073
324.281	26.6724
327.173	44.3357
330.066	16.7385
332.959	51.7031
335.851	71.5176
338.744	46.291
341.637	21.1897
344.529	46.9375
347.422	59.6089
350.315	24.9282
353.208	30.4168
356.1	10.6091
358.993	7.0354
361.886	1.71436
364.778	11.2707
367.671	1.97852
370.564	39.3203
373.457	10.5317
376.349	55.9268
379.242	101.142
382.135	32.9665
385.027	65.282
387.92	57.6384
390.813	15.0269
393.705	20.978
396.598	26.4595
399.491	30.5454
402.384	1.47583
405.276	47.5071
408.169	50.4302
411.062	39.2109
413.954	23.906
416.847	33.51
419.74	74.7351
422.632	46.0461
425.525	36.1638
428.418	26.5745
431.31	18.2752
434.203	64.4951
437.096	28.0706
439.989	51.8967
442.881	83.8064
445.774	43.0437
448.667	27.5054
451.559	53.801
454.452	73.8999
457.345	9.26636
460.238	32.3848
463.13	5.48657
466.023	58.1199
468.916	63.8723
471.808	20.1079
474.701	6.57373
477.594	28.355
480.486	10.9202
483.379	47.4958
486.272	12.4504
489.164	50.394
492.057	41.8157
494.95	34.5793
497.843	42.7429
500.735	36.6382
503.628	55.1477
506.521	20.5295
509.413	39.1851
512.306	29.2273
515.199	5.14697
518.091	34.0381
520.984	51.842
523.877	17.8206
526.77	32.4963
529.662	51.5994
532.555	54.489
535.448	30.5872
538.34	2.0813
541.233	45.2263
544.126	69.907
547.019	27.5305
549.911	2.15454
552.804	27.4678
555.697	4.14502
558.589	28.6565
561.482	57.9343
564.375	34.7349
567.267	82.8904
570.16	41.239
573.053	34.581
575.945	46.7117
578.838	36.384
581.731	84.6592
584.624	58.0593
587.516	57.2715
590.409	84.8928
593.302	60.5847
596.194	61.2571
599.087	69.9824
601.98	83.3342
604.872	105.181
607.765	77.4458
610.658	48.7837
613.551	35.5049
616.443	49.6023
619.336	38.4258
622.229	79.9243
625.121	56.0881
628.014	51.3005
630.907	60.47
633.799	46.4812
636.692	82.6699
639.585	66.1155
642.477	47.6765
645.37	59.9055
648.263	30.9688
651.156	30.6228
654.048	56.0837
656.941	38.9673
659.834	6.25317
662.726	19.9661
665.619	53.2126
668.512	66.1536
671.404	2.58472
674.297	42.4556
677.19	2.84985
680.083	17.9534
682.975	3.75562
685.868	47.8784
688.761	37.8557
691.653	6.54199
694.546	6.51611
697.439	8.17554
700.332	51.6177
703.224	43.0322
706.117	12.2119
709.01	11.1392
711.902	29.9233
714.795	39.5464
717.688	1.31592
720.58	25.3572
723.473	22.7485
726.366	72.1643
729.259	41.5596
732.151	42.5034
735.044	82.77
737.937	57.1733
740.829	97.8638
743.722	88.3455
746.615	87.8564
749.507	143.312
752.4	122.264
755.293	166.425
758.186	129.879
761.078	164.518
763.971	172.135
766.864	184.172
769.756	198.097
772.649	221.024
775.542	278.669
778.434	268.131
781.327	242.231
784.22	319.312
787.112	332.291
790.005	315.996
792.898	331.913
795.791	334.836
798.683	362.133
801.576	358.519
804.469	300.264
807.361	308.224
810.254	334.507
813.147	341.08
816.04	300.785
818.932	314.867
821.825	277.715
824.718	288.194
827.61	280.453
830.503	253.731
833.396	247.176
836.288	205.367
839.181	188.543
842.074	137.532
844.967	164.282
847.859	170.335
850.752	126.367
853.645	115.94
856.537	98.1406
859.43	103.297
862.323	85.189
865.216	32.7932
868.108	84.6023
871.001	35.8755
873.894	24.0342
876.786	38.167
879.679	10.3415
882.572	21.8518
885.464	21.0757
888.357	13.0007
891.25	33.8069
894.143	15.8203
897.035	20.0493
899.928	29.4627
902.821	9.02563
905.713	11.957
908.606	28.9126
911.499	20.6074
914.391	36.8044
917.284	17.9004
920.177	25.0024
923.069	7.41235
925.962	41.5723
928.855	20.7122
931.748	9.57324
934.64	10.3245
937.533	8.62695
940.426	31.3481
943.318	47.79
946.211	4.45019
949.104	43.5383
951.996	26.4456
954.889	66.7766
957.782	19.6797
960.675	21.9307
963.567	70.2651
966.46	18.1052
969.353	63.8723
972.245	56.8899
975.138	60.3743
978.031	56.7446
980.923	44.863
983.816	98.2844
986.709	73.5808
989.602	57.7454
992.494	47.1406
995.387	55.8643
998.28	62.8308
1001.17	64.8213
1004.07	67.1094
1006.96	43.9324
1009.85	62.4665
1012.74	57.2888
1015.64	62.7905
1018.53	63.968
1021.42	12.5588
1024.31	50.4265
1027.21	56.1057
1030.1	57.6133
1032.99	37.3552
1035.88	48.0095
1038.78	57.72
1041.67	20.2131
1044.56	50.3201
1047.46	44.9138
1050.35	49.3337
1053.24	5.04297
1056.13	47.1196
1059.03	32.1914
1061.92	72.4382
1064.81	21.792
1067.7	31.6904
1070.6	36.0344
1073.49	41.6641
1076.38	28.4241
1079.28	73.2153
1082.17	1.90991
1085.06	51.8909
1087.95	20.1843
1090.85	13.4429
1093.74	20.9944
1096.63	22.9871
1099.52	25.6384
1102.42	29.238
1105.31	29.9275
1108.2	26.4363
1111.1	16.9326
1113.99	27.2739
1116.88	5.875
1119.77	32.1802
1122.67	31.7517
1125.56	37.1274
1128.45	33.1292
1131.34	6.68481
1134.24	27.9067
1137.13	5.02393
1140.02	8.59644
1142.91	25.8538
1145.81	42.2463
1148.7	33.6567
1151.59	48.823
1154.48	33.6377
1157.38	1.77588
1160.27	2.17651
1163.16	36.3088
1166.06	55.1616
1168.95	11.2019
1171.84	12.0596
1174.73	33.8909
1177.63	49.6538
1180.52	82.9185
1183.41	50.9287
1186.31	40.1257
1189.2	14.5386
1192.09	45.5867
1194.98	18.55
1197.88	41.8657
1200.77	42.9568
1203.66	31.0666
1206.55	23.7434
1209.45	16.2178
1212.34	38.7043
1215.23	17.0408
1218.12	44.7498
1221.02	20.5027
1223.91	27.9441
1226.8	22.938
1229.7	18.4143
1232.59	15.0183
