Measurement: Raman, 532 nm, unoriented, Raman Data Processed
Mineral: Santafeite
Rruff sample: R080054
Ideal chemistry: (Ca,Sr,Na)_3_(Mn^2+^,Fe^3+^)_2_Mn^4+^_2_(V^5+^O_4_)_4_(OH,O)_5_2H_2_O
Locality: Marble Canyon, Gunnison County, Colorado, USA
Source: James Shigley
Description: Black blocky crystals, associated with elongated groutite, R070583
Measured chemistry: (Ca_1.63_Na_1.34_Sr_0.02_)_Σ=2.99_Mn^+2^_1.84_Mn^+4^_1.96_(V_0.98_As_0.0025_O_4_)_4_OH_5_·2H_2_O
Raman shift (cm-1)	intensity
159.343	0
162.236	4.06329
165.129	1.03375
168.021	2.77045
170.914	13.3573
173.807	5.72907
176.699	4.27325
179.592	14.2167
182.485	15.9001
185.377	17.9196
188.27	24.3633
191.163	19.9202
194.056	22.913
196.948	18.4106
199.841	24.519
202.734	18.688
205.626	14.0808
208.519	5.84448
211.412	0.222107
214.304	2.22845
217.197	1.38025
220.09	2.15393
222.983	0.05011
225.875	2.11029
228.768	4.08124
231.661	3.76532
234.553	3.39356
237.446	3.6991
240.339	11.3861
243.232	9.85181
246.124	14.2232
249.017	9.84735
251.91	13.3825
254.802	11.7512
257.695	11.9859
260.588	10.3778
263.48	6.55731
266.373	6.67151
269.266	4.76959
272.159	5.92761
275.051	8.31494
277.944	6.6734
280.837	4.5968
283.729	1.19812
286.622	4.29553
289.515	3.49963
292.407	9.52136
295.3	9.45886
298.193	14.5718
301.086	9.0769
303.978	6.48975
306.871	7.77539
309.764	6.23914
312.656	5.96216
315.549	2.28357
318.442	4.02429
321.334	9.31934
324.227	6.98401
327.12	9.11841
330.012	7.89185
332.905	16.7635
335.798	15.7485
338.691	19.019
341.583	21.0978
344.476	24.1223
347.369	27.7235
350.261	24.0051
353.154	22.7421
356.047	15.8651
358.94	17.559
361.832	11.8391
364.725	15.7136
367.618	13.4142
370.51	14.8182
373.403	12.8392
376.296	10.9498
379.188	9.50281
382.081	8.11438
384.974	4.32361
387.866	1.89209
390.759	2.64807
393.652	2.44495
396.545	2.6106
399.437	6.74854
402.33	7.21643
405.223	8.16602
408.115	11.0807
411.008	15.1934
413.901	13.9061
416.793	16.1261
419.686	7.36169
422.579	8.02856
425.472	7.84216
428.364	7.82654
431.257	9.7915
434.15	8.25513
437.042	3.80225
439.935	3.48853
442.828	0.216431
445.721	2.31006
448.613	0.721069
451.506	1.03906
454.399	1.1189
457.291	5.651
460.184	7.14136
463.077	11.3728
465.969	12.941
468.862	19.0471
471.755	18.5486
474.647	20.3756
477.54	21.5085
480.433	24.588
483.326	18.3862
486.218	19.3231
489.111	16.8767
492.004	21.8812
494.896	22.3742
497.789	24.9387
500.682	19.738
503.575	20.5853
506.467	15.1567
509.36	8.44788
512.253	9.33606
515.145	9.37891
518.038	10.628
520.931	10.844
523.823	7.21655
526.716	4.28784
529.609	8.33618
532.501	6.17773
535.394	7.40515
538.287	6.24207
541.18	1.74792
544.072	3.81738
546.965	4.51355
549.858	0.025879
552.75	1.25867
555.643	4.1842
558.536	4.56274
561.428	4.9646
564.321	10.0405
567.214	1.97046
570.107	1.7063
572.999	3.5553
575.892	3.03748
578.785	1.13635
581.677	0.719238
584.57	5.31738
587.463	1.56519
590.356	1.81506
593.248	3.32458
596.141	1.17248
599.034	4.36182
601.926	6.97839
604.819	6.6991
607.712	2.8833
610.604	3.96936
613.497	7.49817
616.39	9.07263
619.283	7.80652
622.175	4.99561
625.068	4.05225
627.961	11.2247
630.853	8.49292
633.746	3.72241
636.639	7.57825
639.531	7.2207
642.424	5.53711
645.317	7.75561
648.21	9.02417
651.102	11.0344
653.995	11.5226
656.888	7.72375
659.78	7.92627
662.673	19.2745
665.566	13.3095
668.458	8.70593
671.351	12.4147
674.244	11.9146
677.136	16.201
680.029	12.8486
682.922	12.0043
685.815	12.4852
688.707	13.7991
691.6	16.1498
694.493	17.389
697.385	19.502
700.278	23.2201
703.171	26.3256
706.063	23.2679
708.956	23.6688
711.849	25.5918
714.741	30.1515
717.634	25.5576
720.527	24.0233
723.42	21.0001
726.312	24.1697
729.205	14.8364
732.098	18.2476
734.99	10.817
737.883	21.644
740.776	12.0952
743.668	8.19385
746.561	3.21582
749.454	2.42664
752.347	0.658325
755.239	3.10425
758.132	2.47058
761.025	6.03345
763.917	0.277466
766.81	4.32715
769.703	2.84058
772.596	4.70007
775.488	0.532959
778.381	5.39844
781.274	2.8103
784.166	1.76453
787.059	14.605
789.952	17.477
792.844	36.661
795.737	51.189
798.63	81.8983
801.523	104.237
804.415	129.989
807.308	145.053
810.201	158.752
813.093	164.024
815.986	167.77
818.879	163.588
821.771	159.468
824.664	159.072
827.557	155.844
830.449	157.344
833.342	151.216
836.235	151.38
839.128	148.369
842.02	147.147
844.913	130.989
847.806	118.801
850.698	105.218
853.591	87.3937
856.484	81.2258
859.376	62.3586
862.269	50.3579
865.162	48.3366
868.055	43.5714
870.947	48.7113
873.84	47.9708
876.733	54.3676
879.625	49.6594
882.518	63.1135
885.411	86.7239
888.303	92.7797
891.196	121.013
894.089	143.427
896.982	174.935
899.874	206.14
902.767	230.032
905.66	224.095
908.552	213.635
911.445	193.183
914.338	161.004
917.231	134.307
920.123	127.811
923.016	123.626
925.909	131.228
928.801	152.519
931.694	164.401
934.587	173.95
937.479	178.113
940.372	181.899
943.265	165.102
946.158	128.294
949.05	96.7812
951.943	61.8068
954.836	39.0518
957.728	19.5664
960.621	4.27759
963.514	2.84717
966.406	5.42517
969.299	4.7981
972.192	3.43713
975.085	1.70581
977.977	1.78442
980.87	1.48596
983.763	3.41382
986.655	4.1615
989.548	3.5365
992.441	8.21606
995.333	8.87805
998.226	9.22656
1001.12	9.51929
1004.01	15.8137
1006.9	16.8408
1009.8	18.7496
1012.69	20.8833
1015.58	23.8284
1018.48	25.697
1021.37	22.7557
1024.26	29.0311
1027.15	24.1387
1030.05	20.3677
1032.94	29.8286
1035.83	27.4575
1038.72	26.5258
1041.62	19.3303
1044.51	16.3323
1047.4	20.227
1050.3	22.7228
1053.19	19.3124
1056.08	18.411
1058.97	14.9797
1061.87	17.5828
1064.76	13.608
1067.65	13.8884
1070.54	11.5413
1073.44	13.1206
1076.33	10.7059
1079.22	8.40686
1082.11	7.84168
1085.01	15.5342
1087.9	11.9686
1090.79	3.96655
1093.68	7.40015
1096.58	8.95801
1099.47	12.1484
1102.36	11.751
1105.26	4.97827
1108.15	8.03638
1111.04	11.3297
1113.93	10.6373
1116.83	9.92212
1119.72	6.65234
1122.61	10.3658
1125.51	10.9219
1128.4	0.638916
1131.29	4.18945
1134.18	3.80945
1137.08	8.13855
1139.97	3.24487
1142.86	7.078
1145.75	1.79688
1148.65	3.08472
1151.54	3.25195
1154.43	5.33911
1157.33	2.77966
1160.22	1.52222
1163.11	2.28772
1166	5.9679
1168.89	2.828
1171.79	2.01856
1174.68	0.645996
1177.57	3.10168
1180.47	4.09106
1183.36	9.27039
1186.25	2.35877
1189.14	6.30457
1192.04	0.248657
1194.93	2.88293
1197.82	2.69275
1200.71	2.75598
1203.61	8.10425
1206.5	2.55005
1209.39	1.67908
1212.29	1.896
1215.18	1.51807
1218.07	6.24695
1220.96	5.5907
1223.86	4.39087
1226.75	3.17127
1229.64	4.7279
1232.54	0.681519
1235.43	5.11877
1238.32	2.65772
1241.21	0.658325
1244.11	4.6521
1247	3.97266
1249.89	5.57593
1252.78	2.89502
1255.68	0.205322
1258.57	2.06506
1261.46	8.47241
1264.35	7.86853
1267.25	14.3279
1270.14	4.78027
1273.03	5.73682
1275.92	1.54309
1278.82	5.50305
1281.71	1.75452
1284.6	1.89258
1287.5	2.09143
1290.39	3.21777
1293.28	3.90991
1296.17	5.92102
1299.07	6.7771
1301.96	3.90381
1304.85	2.71545
