Measurement: Raman, 532 nm, unoriented, Raman Data Processed
Mineral: Sapphirine
Rruff sample: R100135
Ideal chemistry: Mg_4_(Mg_3_Al_9_)O_4_[Si_3_Al_9_O_36_]
Locality: Sri Lanka
Source: William W. Pinch
Description: Dark blue glassy fragment
Raman shift (cm-1)	intensity
170.102	0
172.995	14.7823
175.888	6.45837
178.78	10.6411
181.673	10.0123
184.566	11.2142
187.459	16.2513
190.351	2.84815
193.244	4.72852
196.137	0.263062
199.029	6.82581
201.922	41.8994
204.815	36.1387
207.708	55.1639
210.6	65.8455
213.493	87.9818
216.386	121.139
219.278	122.754
222.171	105.204
225.064	79.1329
227.956	65.239
230.849	60.7715
233.742	50.017
236.635	49.7457
239.527	37.7507
242.42	39.5879
245.313	27.1675
248.205	27.9081
251.098	29.0663
253.991	23.1081
256.884	33.5513
259.776	43.8149
262.669	42.1
265.562	26.212
268.454	8.21997
271.347	2.82788
274.24	0.612915
277.132	2.00037
280.025	1.98706
282.918	6.60852
285.81	15.5148
288.703	15.8805
291.596	25.8954
294.489	30.2329
297.381	44.7786
300.274	47.9221
303.167	56.5726
306.059	48.7208
308.952	30.3959
311.845	17.0497
314.738	21.74
317.63	23.8787
320.523	31.0215
323.416	38.1273
326.308	46.2616
329.201	38.1274
332.094	30.5916
334.986	26.4033
337.879	14.9038
340.772	13.4144
343.665	4.11157
346.557	0.213501
349.45	1.40979
352.343	1.74451
355.235	0.585815
358.128	2.82629
361.021	0.191528
363.913	9.11841
366.806	5.41638
369.699	9.47961
372.592	22.4907
375.484	18.3881
378.377	23.7623
381.27	17.6757
384.162	19.1589
387.055	20.6416
389.948	25.1157
392.841	24.5298
395.733	36.5568
398.626	28.2559
401.519	40.6379
404.411	42.0717
407.304	36.7783
410.197	33.3657
413.089	33.8011
415.982	30.13
418.875	27.5909
421.767	28.9127
424.66	15.2681
427.553	13.1904
430.446	9.82373
433.338	10.5923
436.231	7.51367
439.124	10.6272
442.017	13.3398
444.909	12.1895
447.802	10.7589
450.695	6.02136
453.587	3.73535
456.48	2.73157
459.373	5.17749
462.265	13.4387
465.158	22.6128
468.051	34.402
470.943	36.6097
473.836	31.7511
476.729	26.027
479.622	18.1444
482.514	15.0631
485.407	9.0155
488.3	19.9795
491.192	36.5383
494.085	43.2781
496.978	49.7224
499.87	52.5203
502.763	32.6882
505.656	17.9056
508.549	3.86987
511.441	0.14856
514.334	0.027466
517.227	0.883423
520.119	1.8092
523.012	6.10767
525.905	3.24744
528.798	8.60242
531.69	5.66919
534.583	10.7789
537.476	14.0753
540.368	24.1669
543.261	20.1863
546.154	27.0162
549.047	35.7623
551.939	53.4198
554.832	72.054
557.725	92.3419
560.617	112.824
563.51	135.421
566.403	137.229
569.295	124.341
572.188	106.967
575.081	97.4415
577.973	99.3518
580.866	103.572
583.759	122.895
586.652	137.276
589.544	139.673
592.437	119.595
595.33	89.9766
598.222	64.8168
601.115	64.2044
604.008	50.0856
606.901	42.3117
609.793	30.5853
612.686	26.2082
615.579	17.4595
618.471	18.6609
621.364	4.48315
624.257	0.504639
627.149	0.328247
630.042	2.08484
632.935	2.375
635.828	0.584229
638.72	1.30286
641.613	5.01062
644.506	9.86902
647.398	4.31616
650.291	3.35132
653.184	13.9261
656.077	23.147
658.969	45.0543
661.862	57.3648
664.755	73.8977
667.647	96.712
670.54	131.5
673.433	171.301
676.325	229.908
679.218	278.586
682.111	325.087
685.004	349.13
687.896	336.59
690.789	290.783
693.682	232.624
696.574	183.78
699.467	151.968
702.36	127.755
705.253	108.868
708.145	101.714
711.038	82.7906
713.931	72.8364
716.823	76.3038
719.716	65.6812
722.609	58.8806
725.501	63.0502
728.394	63.0261
731.287	62.0521
734.179	64.6058
737.072	63.0242
739.965	58.8462
742.858	53.2748
745.75	46.2749
748.643	42.2844
751.536	34.4967
754.428	32.7179
757.321	31.3152
760.214	25.4946
763.107	18.4097
765.999	17.3711
768.892	12.3367
771.785	3.34973
774.677	4.70898
777.57	0.671143
780.463	1.271
783.356	6.77515
786.248	0.488892
789.141	5.72217
792.034	3.99939
794.926	6.40491
797.819	0.189819
800.712	15.8553
803.604	8.323
806.497	9.06543
809.39	15.8674
812.283	14.7517
815.175	24.3932
818.068	26.4615
820.961	35.4739
823.853	44.645
826.746	38.4913
829.639	29.6263
832.531	25.4869
835.424	24.3148
838.317	9.90918
841.21	9.08935
844.102	6.81738
846.995	2.18848
849.888	1.60718
852.78	11.7736
855.673	13.6096
858.566	13.8243
861.458	14.536
864.351	24.9174
867.244	30.1263
870.136	29.8648
873.029	39.245
875.922	53.8287
878.815	47.4575
881.707	57.9221
884.6	60.5753
887.493	70.1234
890.385	70.6519
893.278	74.163
896.171	79.2225
899.064	88.1893
901.956	99.9968
904.849	129.594
907.742	144.808
910.634	164.492
913.527	164.356
916.42	140.851
919.312	106.62
922.205	66.697
925.098	45.627
927.991	28.7687
930.883	16.5798
933.776	13.4164
936.669	12.4008
939.562	5.44861
942.454	7.21692
945.347	3.46167
948.24	1.60535
951.132	9.02673
954.025	9.84876
956.918	12.6183
959.81	17.6155
962.703	30.2216
965.596	37.2122
968.489	51.7385
971.381	55.3849
974.274	60.2593
977.167	63.007
980.059	60.0836
982.952	57.6495
985.845	47.4369
988.737	43.314
991.63	36.1638
994.523	30.9156
997.415	20.2766
1000.31	26.5068
1003.2	11.2832
1006.09	13.9042
1008.99	6.54504
1011.88	8.95972
1014.77	9.46155
1017.66	5.96692
1020.56	2.80273
1023.45	3.69739
1026.34	0.738892
1029.23	4.83484
1032.13	0.039185
1035.02	8.26331
1037.91	5.22974
1040.81	7.08167
1043.7	3.78796
1046.59	3.24158
1049.48	0.063721
1052.38	3.8429
1055.27	3.45801
1058.16	5.67004
1061.06	8.77283
1063.95	0.239136
1066.84	0.920898
1069.73	5.85254
1072.63	10.8977
1075.52	3.61328
1078.41	5.08362
1081.3	5.93127
1084.2	7.8418
1087.09	12.1548
1089.98	6.70178
1092.88	12.0737
1095.77	3.06812
1098.66	9.1908
1101.55	4.29895
1104.45	5.03101
1107.34	4.72864
1110.23	6.44714
1113.12	4.02026
1116.02	10.4217
1118.91	7.18604
1121.8	10.1289
1124.69	8.67004
1127.59	7.05542
1130.48	6.63635
1133.37	10.1522
1136.27	12.706
1139.16	10.0581
1142.05	6.15088
1144.94	12.4785
1147.84	11.2473
1150.73	1.90295
1153.62	4.02002
1156.51	5.80908
1159.41	0.845581
1162.3	6.96436
1165.19	8.81982
1168.09	11.4159
1170.98	0.399048
1173.87	2.07104
1176.76	12.127
1179.66	7.19812
1182.55	4.9325
1185.44	6.24121
1188.33	13.6703
1191.23	5.36548
1194.12	1.51453
1197.01	8.6582
1199.9	10.7188
1202.8	8.66418
1205.69	5.35974
1208.58	1.39233
1211.48	9.64514
1214.37	6.59827
1217.26	10.6759
1220.15	5.83508
1223.05	5.54065
1225.94	10.3497
1228.83	7.22815
1231.72	3.82727
1234.62	6.17603
1237.51	0.700806
1240.4	1.63892
1243.3	5.76575
1246.19	0.817505
1249.08	8.1709
1251.97	5.95129
1254.87	2.91199
1257.76	3.06653
1260.65	6.45935
1263.54	12.0741
1266.44	9.07825
1269.33	9.91956
1272.22	12.912
1275.12	14.0358
1278.01	6.99512
1280.9	6.67102
1283.79	9.2146
1286.69	7.42847
1289.58	0.281372
1292.47	10.7195
1295.36	7.19116
1298.26	2.27978
1301.15	6.41382
