Measurement: Raman, 780 nm, unoriented, Raman Data Processed
Mineral: Sapphirine
Rruff sample: R100135
Ideal chemistry: Mg_4_(Mg_3_Al_9_)O_4_[Si_3_Al_9_O_36_]
Locality: Sri Lanka
Source: William W. Pinch
Description: Dark blue glassy fragment
Raman shift (cm-1)	intensity
172.565	0
175.458	6.81763
178.351	18.1871
181.243	16.4973
184.136	6.41913
187.029	6.54327
189.921	3.12561
192.814	3.90741
195.707	0.132874
198.6	1.9176
201.492	3.67853
204.385	5.98883
207.278	11.5186
210.17	13.4693
213.063	23.6591
215.956	34.9674
218.848	35.3663
221.741	25.8246
224.634	17.4966
227.526	17.2062
230.419	19.2271
233.312	23.5895
236.205	29.64
239.097	25.1813
241.99	21.7771
244.883	16.1781
247.775	11.5259
250.668	14.6221
253.561	10.5401
256.454	9.63705
259.346	14.0944
262.239	8.29303
265.132	5.85043
268.024	0.552948
270.917	6.02701
273.81	1.14383
276.702	0.290131
279.595	0.944366
282.488	2.28723
285.38	1.85565
288.273	1.19778
291.166	2.77447
294.059	2.70331
296.951	4.53549
299.844	5.7467
302.737	8.12448
305.629	11.2081
308.522	7.62512
311.415	6.63681
314.308	11.3812
317.2	12.0563
320.093	20.4576
322.986	30.7061
325.878	29.5908
328.771	25.7691
331.664	25.8331
334.556	24.8533
337.449	21.0937
340.342	20.7739
343.234	20.7864
346.127	18.1117
349.02	11.062
351.913	13.0501
354.805	11.0676
357.698	6.73389
360.591	7.2904
363.483	12.316
366.376	12.0809
369.269	15.2333
372.161	18.545
375.054	16.7687
377.947	19.4639
380.839	20.9885
383.732	14.3533
386.625	14.6847
389.518	14.6118
392.41	12.1898
395.303	10.833
398.196	13.8132
401.088	13.1169
403.981	13.4147
406.874	14.1418
409.767	15.2387
412.659	20.5466
415.552	20.3839
418.445	21.7475
421.337	22.6611
424.23	15.6819
427.123	12.1652
430.015	8.6474
432.908	6.88721
435.801	8.17987
438.693	13.6025
441.586	11.3295
444.479	8.5105
447.372	12.7867
450.264	10.9454
453.157	7.01794
456.05	4.54486
458.942	3.59619
461.835	7.12128
464.728	12.7624
467.62	20.0693
470.513	23.8546
473.406	24.3901
476.299	21.2994
479.191	17.3187
482.084	16.0803
484.977	12.729
487.869	18.8525
490.762	23.6544
493.655	30.0705
496.547	39.0812
499.44	38.7154
502.333	35.572
505.226	23.6556
508.118	10.8761
511.011	5.38287
513.904	0.20459
516.796	0.715546
519.689	4.23968
522.582	0.769928
525.474	3.29724
528.367	0.7341
531.26	0.669952
534.153	2.28482
537.045	2.03522
539.938	5.03018
542.831	2.10971
545.723	6.35867
548.616	8.66852
551.509	16.8152
554.401	27.2964
557.294	43.607
560.187	59.5619
563.08	81.2427
565.972	90.5984
568.865	81.0391
571.758	67.9322
574.65	58.6207
577.543	54.3101
580.436	49.277
583.328	55.5803
586.221	54.5179
589.114	58.1384
592.006	50.8114
594.899	42.5806
597.792	31.2934
600.685	26.4552
603.577	22.2203
606.47	19.794
609.363	18.6528
612.255	13.5118
615.148	11.7075
618.041	2.72949
620.933	5.45999
623.826	0.554169
626.719	0.440857
629.611	3.11975
632.504	0.335846
635.397	3.31818
638.29	2.79428
641.182	3.60776
644.075	0.286591
646.968	0.472382
649.86	3.21677
652.753	6.14746
655.646	10.0977
658.538	10.9974
661.431	14.7629
664.324	18.8505
667.217	21.4784
670.109	33.0249
673.002	46.3946
675.895	60.1343
678.787	77.7758
681.68	98.0571
684.573	115.263
687.466	113.82
690.358	100.196
693.251	86.4292
696.144	68.6701
699.036	57.8526
701.929	51.5111
704.822	40.9952
707.714	37.2884
710.607	29.2631
713.5	26.123
716.393	26.8615
719.285	23.1919
722.178	21.3546
725.071	24.8337
727.963	22.8187
730.856	22.3707
733.749	19.0269
736.641	21.1413
739.534	17.2316
742.427	17.2444
745.319	14.2683
748.212	14.9396
751.105	11.7459
753.998	10.0868
756.89	9.08438
759.783	11.1455
762.676	7.10934
765.568	3.37503
768.461	2.20474
771.354	1.47562
774.246	1.08212
777.139	0.652527
780.032	2.05505
782.925	0.533539
785.817	1.55514
788.71	2.21988
791.603	0.646393
794.495	0.759705
797.388	5.5318
800.281	3.0433
803.173	8.78452
806.066	8.9119
808.959	12.8383
811.851	13.5311
814.744	15.0309
817.637	23.8008
820.53	28.154
823.422	28.6397
826.315	32.1284
829.208	24.5449
832.1	23.2073
834.993	15.7387
837.886	12.342
840.779	9.40384
843.671	4.76196
846.564	4.99603
849.457	6.35944
852.349	5.14783
855.242	5.83591
858.135	4.8161
861.027	4.48413
863.92	3.21213
866.813	5.7511
869.706	4.09064
872.598	6.13556
875.491	6.93964
878.384	8.28928
881.276	6.65036
884.169	10.1198
887.062	9.52567
889.954	9.25867
892.847	9.43637
895.74	10.8089
898.632	10.6143
901.525	11.8642
904.418	12.2273
907.311	17.1689
910.203	24.012
913.096	29.7202
915.989	23.1043
918.881	15.4215
921.774	10.8307
924.667	6.21057
927.559	0.92981
930.452	0.378937
933.345	0.737457
936.237	1.70303
939.13	1.39911
942.023	0.774567
944.916	4.11468
947.808	3.17896
950.701	3.37366
953.594	5.29614
956.486	4.1174
959.379	5.57062
962.272	7.96277
965.164	9.6575
968.057	10.4629
970.95	15.7041
973.843	16.7168
976.735	15.9757
979.628	18.9251
982.521	18.4915
985.413	16.4085
988.306	14.8023
991.199	14.8701
994.091	11.3937
996.984	5.65387
999.877	6.88422
1002.77	2.39113
1005.66	4.36275
1008.55	5.30095
1011.45	2.95876
1014.34	2.03436
1017.23	6.09001
1020.13	2.12071
1023.02	1.95628
1025.91	3.39815
1028.8	1.67571
1031.7	3.32283
1034.59	0.793396
1037.48	1.48711
1040.38	0.986267
1043.27	3.86879
1046.16	0.514908
1049.05	1.87756
1051.94	1.84073
1054.84	1.04976
1057.73	0.523453
1060.62	1.34134
1063.52	0.326782
1066.41	5.03195
1069.3	2.7549
1072.19	1.42763
1075.09	2.62942
1077.98	1.87242
1080.87	2.93658
1083.77	2.35068
1086.66	1.31055
1089.55	2.29367
1092.44	1.64207
1095.34	0.089279
1098.23	3.06061
1101.12	0.271606
1104.01	2.41087
1106.91	4.77335
1109.8	2.40936
1112.69	1.49974
1115.59	1.2486
1118.48	1.87353
1121.37	1.30495
1124.26	2.91069
1127.16	1.87994
1130.05	5.16121
1132.94	0.322815
1135.83	3.1206
1138.73	0.785019
1141.62	1.44192
1144.51	0.803101
1147.4	2.5139
1150.3	2.61299
1153.19	3.38591
1156.08	3.53165
1158.97	3.25822
1161.87	2.67455
1164.76	2.4095
1167.65	4.36952
1170.55	2.64597
1173.44	4.49113
1176.33	5.56683
1179.22	3.62567
1182.12	2.60788
1185.01	4.03517
1187.9	3.87852
1190.8	7.92059
1193.69	4.71759
1196.58	7.09003
1199.47	2.65331
1202.37	5.58656
1205.26	2.69955
1208.15	3.75412
1211.04	1.89719
1213.94	4.57719
1216.83	2.9595
1219.72	5.86844
1222.62	1.5746
1225.51	0.80661
1228.4	3.02866
1231.29	1.46866
1234.18	3.89795
1237.08	4.83148
1239.97	1.00873
1242.86	5.45659
1245.76	2.25079
1248.65	3.4185
1251.54	2.56178
1254.43	4.01396
1257.33	5.06703
1260.22	0.963211
1263.11	2.74031
1266.01	0.404068
1268.9	1.69823
1271.79	1.70079
1274.68	1.90823
1277.58	0.756775
1280.47	1.5824
1283.36	0.139038
