Measurement: Raman, 780 nm, unoriented, Raman Data Processed
Mineral: Sapphirine
Rruff sample: R100143
Ideal chemistry: Mg_4_(Mg_3_Al_9_)O_4_[Si_3_Al_9_O_36_]
Locality: Unknown
Source: William W. Pinch
Description: Pale purple cut gemstones
Raman shift (cm-1)	intensity
106.033	0
108.926	0.328308
111.819	4.91214
114.711	0.316772
117.604	1.23807
120.497	1.29349
123.389	1.27786
126.282	10.1792
129.175	16.1632
132.067	20.8582
134.96	26.1507
137.853	31.8938
140.746	32.0781
143.638	45.2897
146.531	49.425
149.424	58.6444
152.316	63.6578
155.209	66.6411
158.102	80.7014
160.994	102.674
163.887	121.787
166.78	115.094
169.673	105.931
172.565	102.626
175.458	89.9132
178.351	78.3728
181.243	68.1331
184.136	63.3493
187.029	58.0563
189.921	51.5877
192.814	49.1976
195.707	47.4254
198.6	48.1738
201.492	47.5097
204.385	48.92
207.278	51.6606
210.17	51.7574
213.063	61.8329
215.956	66.7085
218.848	67.3117
221.741	52.7621
224.634	43.2231
227.526	37.4804
230.419	39.1857
233.312	41.5397
236.205	43.5399
239.097	42.0303
241.99	41.0771
244.883	36.6132
247.775	34.1628
250.668	31.2966
253.561	37.6637
256.454	35.8477
259.346	36.7486
262.239	27.8507
265.132	17.9112
268.024	9.42999
270.917	4.68585
273.81	3.95166
276.702	0.793335
279.595	0.787903
282.488	3.44672
285.38	3.95148
288.273	4.60974
291.166	4.06989
294.059	2.82129
296.951	0.278259
299.844	0.535828
302.737	5.01202
305.629	5.05206
308.522	7.5003
311.415	4.3587
314.308	3.29217
317.2	7.49029
320.093	6.42377
322.986	8.96838
325.878	19.5515
328.771	17.3451
331.664	20.1684
334.556	20.7713
337.449	21.8821
340.342	19.8909
343.234	14.1128
346.127	12.0236
349.02	3.94251
351.913	4.82996
354.805	3.87195
357.698	3.55487
360.591	6.0329
363.483	7.87939
366.376	8.66791
369.269	20.3022
372.161	21.5706
375.054	29.3085
377.947	28.7728
380.839	28.5914
383.732	23.5291
386.625	15.5427
389.518	14.6257
392.41	12.1786
395.303	15.0825
398.196	10.7631
401.088	7.68243
403.981	7.0061
406.874	2.39142
409.767	4.66217
412.659	5.28979
415.552	2.51337
418.445	2.12073
421.337	6.55066
424.23	4.34277
427.123	3.45502
430.015	5.96655
432.908	5.98694
435.801	6.25696
438.693	9.15649
441.586	9.58197
444.479	11.6564
447.372	13.5441
450.264	19.1149
453.157	25.7473
456.05	24.8249
458.942	31.0877
461.835	33.1649
464.728	37.8309
467.62	39.0706
470.513	39.2411
473.406	39.2308
476.299	30.0958
479.191	23.4853
482.084	16.9935
484.977	14.655
487.869	10.4459
490.762	12.3633
493.655	17.7331
496.547	15.8718
499.44	13.3576
502.333	10.0008
505.226	10.0818
508.118	7.17072
511.011	1.51367
513.904	0.570129
516.796	0.161438
519.689	0.434143
522.582	1.00616
525.474	0.301941
528.367	1.97559
531.26	1.1236
534.153	2.74591
537.045	1.1897
539.938	4.2074
542.831	2.11749
545.723	3.30963
548.616	9.02881
551.509	12.2462
554.401	21.0397
557.294	25.3402
560.187	30.5812
563.08	37.9746
565.972	39.6686
568.865	35.999
571.758	36.5384
574.65	39.2054
577.543	42.4863
580.436	48.4346
583.328	54.9691
586.221	72.0993
589.114	78.948
592.006	78.1529
594.899	61.5485
597.792	49.8258
600.685	32.429
603.577	24.6323
606.47	21.325
609.363	17.6061
612.255	13.3131
615.148	9.54941
618.041	7.64838
620.933	2.30008
623.826	0.067383
626.719	0.21405
629.611	0.473022
632.504	2.32883
635.397	1.13602
638.29	0.419464
641.182	0.651428
644.075	3.20667
646.968	4.43536
649.86	11.9424
652.753	10.3597
655.646	16.8504
658.538	21.6171
661.431	26.2696
664.324	34.448
667.217	41.5458
670.109	50.4582
673.002	59.1853
675.895	71.9054
678.787	89.2661
681.68	100.61
684.573	116.228
687.466	124.391
690.358	117.272
693.251	98.1759
696.144	82.3924
699.036	68.9318
701.929	61.0078
704.822	52.6678
707.714	49.9131
710.607	46.8471
713.5	43.3247
716.393	38.7212
719.285	38.6135
722.178	32.7079
725.071	33.0094
727.963	29.5708
730.856	33.4231
733.749	28.52
736.641	27.887
739.534	24.0639
742.427	21.0565
745.319	20.9846
748.212	16.4786
751.105	12.2747
753.998	13.5223
756.89	9.69275
759.783	6.15189
762.676	3.58148
765.568	3.05704
768.461	6.06244
771.354	1.98386
774.246	3.26834
777.139	0.540497
780.032	2.27643
782.925	1.21759
785.817	1.11969
788.71	0.783844
791.603	2.01251
794.495	3.84296
797.388	1.52997
800.281	3.58844
803.173	5.71323
806.066	10.6953
808.959	10.1331
811.851	11.6042
814.744	15.7129
817.637	17.0223
820.53	17.5458
823.422	18.3258
826.315	17.4836
829.208	14.4386
832.1	13.7974
834.993	12.4828
837.886	7.51468
840.779	4.55249
843.671	6.09854
846.564	3.97568
849.457	4.46786
852.349	5.78793
855.242	3.51956
858.135	8.49109
861.027	8.72052
863.92	9.32864
866.813	12.3924
869.706	12.2389
872.598	12.7808
875.491	14.8425
878.384	14.1057
881.276	14.5325
884.169	19.155
887.062	18.7868
889.954	25.3686
892.847	26.4671
895.74	30.2596
898.632	32.0364
901.525	34.2477
904.418	35.035
907.311	42.424
910.203	44.6849
913.096	46.0424
915.989	41.852
918.881	32.8581
921.774	21.2771
924.667	12.7319
927.559	4.83133
930.452	3.97806
933.345	1.68008
936.237	0.148332
939.13	4.15344
942.023	3.94022
944.916	7.20993
947.808	8.97009
950.701	7.94235
953.594	6.6933
956.486	7.81818
959.379	6.3475
962.272	3.51047
965.164	3.75406
968.057	1.58518
970.95	0.736084
973.843	0.239136
976.735	1.55771
979.628	0.651978
982.521	0.218353
985.413	1.70493
988.306	2.23178
991.199	1.72702
994.091	3.11844
996.984	1.58285
999.877	0.997223
1002.77	0.219269
1005.66	0.120575
1008.55	0.469025
1011.45	0.944946
1014.34	2.2038
1017.23	2.65183
1020.13	2.62961
1023.02	2.73196
1025.91	1.98999
1028.8	3.74442
1031.7	1.99527
1034.59	3.52759
1037.48	5.46243
1040.38	3.8912
1043.27	2.70078
1046.16	5.39322
1049.05	5.07245
1051.94	4.0589
1054.84	5.44406
1057.73	4.52664
1060.62	3.10092
1063.52	3.45795
1066.41	2.92508
1069.3	0.764343
1072.19	3.2572
1075.09	2.04178
1077.98	0.116486
1080.87	1.70709
1083.77	0.205841
1086.66	3.15897
1089.55	3.16748
1092.44	0.984741
1095.34	3.08173
1098.23	1.6059
1101.12	1.26831
1104.01	2.61359
1106.91	4.74298
1109.8	1.94211
1112.69	2.16031
1115.59	4.17633
1118.48	1.22131
1121.37	1.48886
1124.26	2.95779
1127.16	1.58777
1130.05	1.69952
1132.94	1.44495
1135.83	1.84305
1138.73	4.45657
1141.62	2.80124
1144.51	3.95844
1147.4	4.20795
1150.3	3.18878
1153.19	6.13171
1156.08	2.72745
1158.97	4.72138
1161.87	3.3815
1164.76	0.185974
1167.65	2.37549
1170.55	3.32117
1173.44	3.55591
1176.33	2.25851
1179.22	5.99484
1182.12	4.81421
1185.01	2.04584
1187.9	3.57547
1190.8	3.02811
1193.69	3.30026
1196.58	0.867767
1199.47	2.6571
1202.37	1.50794
1205.26	0.204712
1208.15	2.45178
1211.04	3.12384
1213.94	3.27469
1216.83	2.24823
1219.72	4.59811
1222.62	1.89023
