Measurement: Raman, 780 nm, unoriented, Raman Data Processed
Mineral: Sapphirine
Rruff sample: R060073
Ideal chemistry: Mg_4_(Mg_3_Al_9_)O_4_[Si_3_Al_9_O_36_]
Locality: Androy, Madagascar
Source: Marcus Origlieri
Description: Dark blue massive
Measured chemistry: Mg_4_(Mg_3.32_Al_8.34_Fe^2+^_0.42_)O_4_(Si_3.5_Al_8.5_O_36_)
Raman shift (cm-1)	intensity
191.919	0
194.812	0.319214
197.705	2.08521
200.597	3.99512
203.49	7.29242
206.383	8.98791
209.275	12.4744
212.168	14.0438
215.061	18.982
217.953	20.4364
220.846	16.3504
223.739	9.40698
226.632	6.21048
229.524	5.51123
232.417	6.93347
235.31	11.1902
238.202	10.2511
241.095	8.10632
243.988	6.90164
246.881	2.76428
249.773	3.24835
252.666	3.12262
255.559	3.16513
258.451	7.6077
261.344	7.20612
264.237	5.61203
267.129	3.51593
270.022	0.065826
272.915	1.35147
275.808	2.37329
278.7	3.19266
281.593	0.802155
284.486	1.04559
287.378	1.66385
290.271	6.92377
293.164	9.12549
296.056	12.8704
298.949	17.4701
301.842	17.1199
304.735	14.5813
307.627	13.7477
310.52	11.4334
313.413	10.3079
316.305	10.9563
319.198	12.9978
322.091	15.1373
324.983	18.4366
327.876	17.3623
330.769	16.9493
333.661	14.4137
336.554	12.0968
339.447	14.341
342.339	11.6607
345.232	10.096
348.125	9.81043
351.018	12.5248
353.91	11.9673
356.803	15.7053
359.696	17.3183
362.588	18.3673
365.481	19.0888
368.374	22.3315
371.267	22.6143
374.159	24.4137
377.052	18.7091
379.945	16.2616
382.837	13.9406
385.73	10.3455
388.623	9.57007
391.515	10.3569
394.408	10.0605
397.301	11.9165
400.193	9.94861
403.086	12.3117
405.979	12.6384
408.872	10.405
411.764	9.04477
414.657	6.45059
417.55	6.44174
420.442	1.95361
423.335	3.36475
426.228	2.64606
429.12	1.4527
432.013	4.46964
434.906	3.80875
437.799	6.49432
440.691	7.37729
443.584	12.3387
446.477	14.3518
449.369	16.5293
452.262	18.3593
455.155	16.4153
458.048	15.1511
460.94	15.3749
463.833	13.3304
466.726	10.627
469.618	7.09793
472.511	3.3244
475.404	0.543427
478.296	1.60217
481.189	2.4628
484.082	1.46393
486.974	1.51685
489.867	1.18332
492.76	5.63931
495.653	7.80075
498.545	7.59479
501.438	6.01489
504.331	3.16321
507.223	2.20194
510.116	1.72134
513.009	0.895996
515.902	0.183472
518.794	1.34326
521.687	1.78333
524.58	0.339478
527.472	0.22525
530.365	1.67792
533.258	3.07694
536.15	2.33966
539.043	3.1694
541.936	3.97376
544.829	5.37189
547.721	11.7776
550.614	16.2902
553.507	22.9281
556.399	30.4417
559.292	38.3937
562.185	46.2817
565.077	44.3875
567.97	45.3176
570.863	38.5
573.756	39.0769
576.648	42.0134
579.541	41.3191
582.434	44.4041
585.326	44.1219
588.219	40.9772
591.112	34.0671
594.004	25.7483
596.897	18.328
599.79	16.1676
602.683	13.0432
605.575	8.3706
608.468	7.15125
611.361	3.66434
614.253	0.716339
617.146	0.771484
620.039	0.253967
622.931	1.50565
625.824	1.6575
628.717	0.000305
631.61	0.121887
634.502	0.453705
637.395	2.99197
640.288	2.45233
643.18	2.71149
646.073	3.66754
648.966	4.71078
651.858	7.71042
654.751	12.8455
657.644	18.6785
660.537	18.3071
663.429	23.7188
666.322	30.1956
669.215	38.7072
672.107	47.8503
675	58.3842
677.893	68.2277
680.785	76.2246
683.678	74.8729
686.571	67.1304
689.463	55.4706
692.356	46.6852
695.249	39.5112
698.142	33.7736
701.034	30.1327
703.927	26.2168
706.82	24.3508
709.712	21.7055
712.605	20.9201
715.498	17.9791
718.39	17.7541
721.283	18.7809
724.176	16.5559
727.069	17.5029
729.961	14.4231
732.854	14.874
735.747	12.4399
738.639	13.5771
741.532	10.8818
744.425	10.4362
747.317	9.9017
750.21	8.37842
753.103	8.45602
755.996	4.8793
758.888	2.09222
761.781	2.63266
764.674	2.18289
767.566	1.23199
770.459	1.13055
773.352	0.837708
776.245	1.54477
779.137	0.462555
782.03	1.51425
784.923	0.244537
787.815	0.496796
790.708	0.915222
793.601	1.03751
796.493	4.55707
799.386	5.54916
802.279	5.85144
805.172	6.76837
808.064	9.67792
810.957	12.3916
813.85	15.2538
816.742	14.7541
819.635	19.0809
822.528	19.0035
825.42	17.3706
828.313	14.4445
831.206	11.6061
834.098	9.99249
836.991	8.85828
839.884	5.41251
842.777	6.70288
845.669	4.25092
848.562	6.41214
851.455	5.271
854.347	6.15793
857.24	5.21423
860.133	5.33371
863.025	5.51721
865.918	6.19769
868.811	7.04813
871.704	6.5524
874.596	7.95737
877.489	9.24857
880.382	8.20306
883.274	7.80142
886.167	8.99432
889.06	8.3826
891.952	8.19815
894.845	9.71597
897.738	10.1189
900.631	13.0369
903.523	17.273
906.416	20.3079
909.309	22.5745
912.201	23.6069
915.094	18.1448
917.987	12.6744
920.88	6.66974
923.772	2.80109
926.665	0.943848
929.558	0.070343
932.45	1.07889
935.343	1.17709
938.236	0.831329
941.128	1.00037
944.021	0.776184
946.914	1.99774
949.807	2.00467
952.699	1.65485
955.592	1.80463
958.485	3.87457
961.377	4.80124
964.27	5.85373
967.163	8.30679
970.055	9.25101
972.948	11.9414
975.841	12.3573
978.734	14.6624
981.626	14.8481
984.519	12.5897
987.412	10.404
990.304	9.14603
993.197	7.94443
996.09	6.79941
998.982	5.6395
1001.88	8.49878
1004.77	3.48908
1007.66	3.96671
1010.55	3.49509
1013.45	3.04857
1016.34	1.91107
1019.23	2.67217
1022.12	2.0289
1025.02	1.04588
1027.91	0.008148
1030.8	0.14119
1033.69	0.301682
1036.59	0.172379
1039.48	0.009048
1042.37	0.365173
1045.27	0.313492
1048.16	0.945023
1051.05	1.1698
1053.94	0.934509
1056.84	1.38002
1059.73	1.15796
1062.62	0.725296
1065.52	1.62172
1068.41	1.74217
1071.3	2.0307
1074.19	1.29701
1077.09	1.13545
1079.98	1.4536
1082.87	2.41139
1085.76	1.87264
1088.66	1.57541
1091.55	2.64667
1094.44	0.824539
1097.33	0.145538
1100.23	0.133835
1103.12	0.567749
1106.01	1.24663
1108.9	1.82735
1111.8	1.65105
1114.69	0.173782
1117.58	2.3902
1120.48	2.41248
1123.37	1.46742
1126.26	1.2848
1129.15	1.71231
1132.05	0.650894
1134.94	1.54071
1137.83	2.10141
1140.72	1.81075
1143.62	1.76511
1146.51	1.89421
1149.4	1.6423
1152.3	0.810745
1155.19	2.62174
1158.08	2.36623
1160.97	2.77608
1163.87	1.79895
1166.76	1.50241
1169.65	2.1807
1172.54	1.84007
1175.44	1.99144
1178.33	0.936646
1181.22	1.00174
1184.12	2.11195
1187.01	2.71732
1189.9	1.62219
1192.79	0.561356
1195.69	0.491867
1198.58	1.5616
1201.47	2.20004
1204.36	1.93214
1207.26	2.1089
1210.15	1.86212
1213.04	2.29935
1215.93	1.57727
1218.83	0.972504
1221.72	1.18945
1224.61	1.51354
1227.51	0.715775
1230.4	1.41241
1233.29	1.33679
1236.18	1.45554
1239.08	2.2177
1241.97	2.22845
1244.86	0.107498
1247.76	1.18776
1250.65	1.74532
1253.54	2.62621
1256.43	1.9238
1259.33	1.1023
1262.22	1.17532
1265.11	1.26892
1268	0.211075
1270.9	2.0663
1273.79	2.25099
1276.68	0.896011
1279.57	1.33118
1282.47	0.039719
