Measurement: Raman, 780 nm, unoriented, Raman Data Processed
Mineral: Sarcolite
Rruff sample: R070688
Ideal chemistry: Na_4_Ca_12_Al_8_Si_12_O_46_(SiO_4_,PO_4_)(OH,H_2_O)_4_(CO_3_,Cl)
Locality: Monte Somma, Vesuvius, Italy
Source: Michael Scott
Description: Rounded colorless crystals associated with orange gehlenite and black augite
Raman shift (cm-1)	intensity
153.875	0
156.768	5.32031
159.661	185.667
162.554	122.602
165.446	88.8047
168.339	184.99
171.232	174.449
174.124	336.24
177.017	386.038
179.91	428.198
182.803	506.891
185.695	670.225
188.588	401.13
191.481	245.875
194.373	188.082
197.266	143.37
200.159	71.2539
203.051	51.0254
205.944	120.522
208.837	110.522
211.729	62.2207
214.622	42.7539
217.515	25.6016
220.407	205.817
223.3	316.714
226.193	388.354
229.086	430.864
231.978	502.405
234.871	684.114
237.764	670.375
240.656	758.641
243.549	821.849
246.442	844.183
249.334	880.644
252.227	879.578
255.12	802.248
258.013	915.466
260.905	687.929
263.798	667.779
266.691	572.708
269.583	529.143
272.476	500.601
275.369	376.263
278.262	393.94
281.154	254.218
284.047	250.231
286.94	330.937
289.832	285.796
292.725	210.769
295.618	123.561
298.51	90.2266
301.403	78.8125
304.296	200.331
307.188	258.848
310.081	218.531
312.974	167.736
315.867	130.943
318.759	84.5371
321.652	32.6816
324.545	94.1387
327.437	58.5156
330.33	21.9746
333.223	56.959
336.115	138.144
339.008	233.863
341.901	149.685
344.794	316.418
347.686	475.346
350.579	726.227
353.472	844.744
356.364	892.504
359.257	1006.21
362.15	1051.46
365.043	1074.31
367.935	1208.53
370.828	1264.71
373.721	1218.06
376.613	1177.33
379.506	1205.34
382.399	1182.86
385.291	1078.37
388.184	901.047
391.077	778.289
393.969	651.797
396.862	448.897
399.755	493.103
402.648	245.559
405.54	209.269
408.433	194.904
411.326	196.516
414.218	325.082
417.111	186.766
420.004	78.0684
422.897	7.63672
425.789	111.738
428.682	63.5547
431.575	137.502
434.467	193.928
437.36	372.736
440.253	454.789
443.145	652.975
446.038	1048.44
448.931	1338.06
451.824	1559.01
454.716	1786.28
457.609	2040.06
460.502	1815.85
463.394	1737.54
466.287	1472.46
469.18	1253.69
472.072	929.277
474.965	667.586
477.858	578.91
480.75	377.539
483.643	330.361
486.536	373.115
489.429	291.154
492.321	99.1953
495.214	15.4785
498.107	102.803
500.999	111.603
503.892	31.375
506.785	59.2715
509.678	55.8086
512.57	131.182
515.463	45.8613
518.356	76.1562
521.248	158.865
524.141	295.922
527.034	560.894
529.926	787.232
532.819	1076.37
535.712	1380.7
538.604	1472.98
541.497	1580.36
544.39	1462.84
547.283	1375.06
550.175	1217.89
553.068	1025.38
555.961	810.258
558.853	873.164
561.746	839.033
564.639	751.725
567.531	490.406
570.424	271.033
573.317	375.434
576.21	198.572
579.102	332.969
581.995	278.096
584.888	258.672
587.78	268.209
590.673	456.603
593.566	570.705
596.458	730.186
599.351	827.369
602.244	760.914
605.136	903.832
608.029	986.908
610.922	1206.34
613.815	1606.15
616.707	1895.25
619.6	2349.92
622.493	2921.02
625.385	3263.45
628.278	3680.56
631.171	3746.85
634.063	3334.78
636.956	2564.61
639.849	1941.52
642.742	1521.31
645.634	1060.66
648.527	724.053
651.42	522.93
654.312	445.084
657.205	340.402
660.098	147.438
662.99	138.178
665.883	65.4004
668.776	231.58
671.669	134.871
674.561	59.9766
677.454	76.5664
680.347	28.3262
683.239	22.1211
686.132	1.1543
689.025	16.502
691.918	101.853
694.81	43.0215
697.703	71.2969
700.596	19.2031
703.488	73.7754
706.381	225.336
709.274	282.635
712.166	300.305
715.059	280.787
717.952	367.9
720.845	315.547
723.737	293.953
726.63	309.529
729.523	296.844
732.415	251.291
735.308	331.754
738.201	408.408
741.093	791.422
743.986	812.244
746.879	991.686
749.771	1072.55
752.664	891.555
755.557	780.221
758.45	650.383
761.342	333.836
764.235	280.094
767.128	346.596
770.02	366.256
772.913	349.674
775.806	320.477
778.698	257.844
781.591	369.305
784.484	270.912
787.377	386.215
790.269	251.869
793.162	186.549
796.055	287.897
798.947	242.353
801.84	267.518
804.733	177.629
807.625	195.877
810.518	125.627
813.411	184.025
816.304	185.369
819.196	32.75
822.089	34.2773
824.982	190.199
827.874	201.828
830.767	40.0078
833.66	6.97656
836.552	55.6016
839.445	139.707
842.338	187.844
845.231	84.1523
848.123	173.516
851.016	267.559
853.909	75.7578
856.801	30.8125
859.694	13.9375
862.587	76.4336
865.479	19.0469
868.372	101.078
871.265	9.93359
874.158	9.80469
877.05	351.172
879.943	585.504
882.836	957.445
885.728	1159.98
888.621	1264.21
891.514	1332.94
894.406	1442.88
897.299	1698.33
900.192	1520.79
903.085	1377.4
905.977	1196.8
908.87	1190.36
911.763	1079.47
914.655	1049.49
917.548	1290.75
920.441	1221.24
923.333	1021.47
926.226	618.074
929.119	586.352
932.011	636
934.904	999.742
937.797	1302.41
940.69	1948.94
943.582	2635.78
946.475	3337.84
949.368	3851.03
952.26	3937.08
955.153	3922.11
958.046	3789.18
960.938	3691.86
963.831	3073
966.724	2236.45
969.617	1441.56
972.509	818.359
975.402	327.195
978.295	69.4023
981.187	71.4258
984.08	80.6953
986.973	132.34
989.865	235.004
992.758	48.5625
995.651	90.6758
998.544	422.629
1001.44	494.523
1004.33	336.852
1007.22	264.211
1010.11	193.75
1013.01	373.988
1015.9	393.019
1018.79	215.621
1021.68	173.418
1024.58	102.742
1027.47	24.8203
1030.36	317.391
1033.26	125.746
1036.15	67.9453
1039.04	42.3398
1041.93	82.7695
1044.83	6.53906
1047.72	27.332
1050.61	225.25
1053.51	99.5586
1056.4	499.008
1059.29	872.633
1062.18	1549.63
1065.08	2318.12
1067.97	2485.78
1070.86	2330.36
1073.75	1925.27
1076.65	1771.92
1079.54	1558.71
1082.43	1340.14
1085.33	841.957
1088.22	405.34
1091.11	96.7617
1094	151.773
1096.89	259.711
1099.79	33.332
1102.68	56.4883
1105.57	58.4727
1108.47	75.1484
1111.36	264.91
1114.25	406.57
1117.14	279.902
1120.04	233.133
1122.93	186.75
1125.82	348.836
1128.71	267.254
1131.61	265.953
1134.5	533.926
1137.39	445.738
1140.29	311.129
1143.18	218.484
1146.07	341.883
1148.96	449.246
1151.86	440.527
1154.75	180.367
1157.64	339.344
1160.54	215.934
1163.43	42.418
1166.32	64.0039
1169.21	167.856
1172.11	141.723
1175	186.223
1177.89	229.684
1180.78	20.2734
1183.68	169.461
1186.57	348.836
1189.46	379.188
1192.35	310.582
1195.25	236.734
1198.14	117.039
1201.03	171.394
1203.92	164.43
1206.82	168.481
1209.71	227.918
1212.6	309.023
1215.5	166.953
1218.39	251.242
1221.28	146.996
1224.17	159.473
1227.07	176.394
1229.96	67.7383
1232.85	17.7812
1235.74	67.0664
1238.64	222.418
1241.53	423.894
1244.42	117.957
1247.32	351.914
1250.21	280.969
1253.1	113.523
1255.99	137.602
1258.89	0
