Measurement: Raman, 532 nm, unoriented, Raman Data Processed
Mineral: Sarcolite
Rruff sample: R070688
Ideal chemistry: Na_4_Ca_12_Al_8_Si_12_O_46_(SiO_4_,PO_4_)(OH,H_2_O)_4_(CO_3_,Cl)
Locality: Monte Somma, Vesuvius, Italy
Source: Michael Scott
Description: Rounded colorless crystals associated with orange gehlenite and black augite
Raman shift (cm-1)	intensity
110.363	0
113.256	2.17822
116.149	36.376
119.041	60.1399
121.934	103.805
124.827	182.147
127.719	167.639
130.612	130.283
133.505	129.851
136.398	74.1909
139.29	124.379
142.183	50.657
145.076	57.6575
147.968	73.0154
150.861	37.2283
153.754	66.4907
156.646	0.477051
159.539	19.1267
162.432	10.9133
165.325	32.0786
168.217	41.499
171.11	77.2524
174.003	146.15
176.895	86.5884
179.788	47.1538
182.681	107.005
185.573	94.1533
188.466	119.874
191.359	27.3652
194.251	14.1177
197.144	13.3843
200.037	43.5132
202.93	33.5786
205.822	193.949
208.715	165.928
211.608	274.837
214.5	306.166
217.393	357.358
220.286	469.055
223.179	648.245
226.071	668.857
228.964	776.063
231.857	891.348
234.749	1072.59
237.642	927.405
240.535	1008.47
243.427	919.503
246.32	935.589
249.213	835.457
252.106	744.981
254.998	655.1
257.891	626.172
260.784	537.516
263.676	458.651
266.569	367.578
269.462	283.086
272.354	178.761
275.247	159.634
278.14	95.4028
281.033	75.5752
283.925	57.2642
286.818	11.6729
289.711	37.4541
292.603	2.35596
295.496	23.3955
298.389	10.6396
301.281	51.5176
304.174	1.27441
307.067	47.9248
309.959	8.23145
312.852	1.7124
315.745	12.2197
318.638	12.4355
321.53	30.001
324.423	34.1162
327.316	84.0078
330.208	119.452
333.101	382.57
335.994	600.227
338.887	972.525
341.779	1769.86
344.672	1754.78
347.565	2250.42
350.457	2737.36
353.35	3148.24
356.243	3584.1
359.135	3769.03
362.028	3873.04
364.921	3721.82
367.813	3568.78
370.706	3314.86
373.599	2999.35
376.492	2639.67
379.384	2279.77
382.277	2064.46
385.17	1884.66
388.062	1780.68
390.955	1640.13
393.848	1591.71
396.74	1626.54
399.633	1563.21
402.526	1467.34
405.419	1524.89
408.311	1373.42
411.204	1345.97
414.097	1267.85
416.989	1147.39
419.882	1052.95
422.775	920.623
425.668	854.341
428.56	722.385
431.453	573.372
434.346	452.348
437.238	359.288
440.131	192.663
443.024	216.265
445.916	129.857
448.809	157.006
451.702	76.9531
454.594	105.041
457.487	115.724
460.38	38.7031
463.273	1.28662
466.165	9.93213
469.058	23.8896
471.951	14.6631
474.843	38.4126
477.736	60.0171
480.629	65.1445
483.522	43.396
486.414	47.7661
489.307	120.422
492.2	145.091
495.092	243.194
497.985	224.342
500.878	266.453
503.77	383.518
506.663	385.886
509.556	412.58
512.448	316.931
515.341	418.362
518.234	333.275
521.127	411.498
524.019	377.226
526.912	428.612
529.805	468.241
532.697	496.86
535.59	503.263
538.483	506.769
541.375	475.405
544.268	454.745
547.161	355.734
550.054	286.412
552.946	251.001
555.839	202.383
558.732	146.72
561.624	105.068
564.517	66.3081
567.41	48.7944
570.303	8.71582
573.195	47.2507
576.088	13.0303
578.981	13.8257
581.873	17.0361
584.766	3.53784
587.659	13.8496
590.551	47.3123
593.444	58.5588
596.337	137.052
599.23	146.509
602.122	131.623
605.015	230.606
607.908	285.84
610.8	319.781
613.693	378.65
616.586	510.478
619.478	633.644
622.371	767.842
625.264	928.781
628.157	1018.84
631.049	1012.83
633.942	995.713
636.835	816.572
639.727	592.856
642.62	404.882
645.513	327.861
648.405	211.001
651.298	148.552
654.191	67.7405
657.083	121.268
659.976	86.4404
662.869	66.2473
665.762	69.9873
668.654	43.7771
671.547	94.0549
674.44	34.499
677.332	79.6255
680.225	90.6609
683.118	13.9898
686.01	34.9431
688.903	3.90869
691.796	0.593262
694.689	10.7205
697.581	0.385498
700.474	5.70117
703.367	13.6177
706.259	56.4321
709.152	10.8252
712.045	27.9648
714.938	36.5366
717.83	17.7136
720.723	30.8103
723.616	75.9836
726.508	14.3264
729.401	48.043
732.294	63.1392
735.186	83.1775
738.079	94.1794
740.972	126.505
743.865	161.428
746.757	204.662
749.65	215.95
752.543	238.004
755.435	207.418
758.328	130.223
761.221	93.5432
764.113	82.4124
767.006	75.2598
769.899	85.9416
772.792	59.988
775.684	102.734
778.577	93.3523
781.47	78.1196
784.362	85.8542
787.255	64.0344
790.148	113.852
793.04	74.8679
795.933	11.8225
798.826	63.8015
801.718	23.4524
804.611	31.4214
807.504	0.929932
810.397	1.59473
813.289	62.0364
816.182	19.1609
819.075	21.4126
821.967	21.5369
824.86	37.9951
827.753	18.2078
830.645	3.34253
833.538	37.5872
836.431	51.1748
839.323	26.4702
842.216	103.632
845.109	57.9048
848.002	122.847
850.894	55.8662
853.787	34.1211
856.68	28.835
859.572	26.0535
862.465	13.9876
865.358	4.30518
868.25	49.5742
871.143	18.5588
874.036	5.77319
876.929	4.3103
879.821	51.6213
882.714	94.1565
885.607	109.004
888.5	153.072
891.392	173.253
894.285	218.331
897.178	209.327
900.07	191.543
902.963	146.424
905.856	123.114
908.748	146.26
911.641	135.664
914.534	161.185
917.427	190.484
920.319	150.084
923.212	124.039
926.105	53.616
928.997	86.3701
931.89	93.7615
934.783	93.02
937.675	150.679
940.568	268.639
943.461	480.16
946.354	615.419
949.246	753.013
952.139	825.54
955.032	798.74
957.924	755.161
960.817	708.468
963.71	653.686
966.602	523.53
969.495	294.661
972.388	176.593
975.28	83.9033
978.173	91.8897
981.066	76.6572
983.959	99.8462
986.851	132.294
989.744	207.66
992.637	211.135
995.529	281.113
998.422	316.635
1001.32	359.418
1004.21	394.555
1007.1	383.334
1009.99	396.553
1012.89	353.096
1015.78	338.288
1018.67	315.884
1021.56	279.96
1024.46	299.104
1027.35	247.074
1030.24	204.319
1033.13	200.571
1036.03	156.929
1038.92	144.555
1041.81	79.5615
1044.7	74.4424
1047.6	44.3345
1050.49	17.2559
1053.38	52.5027
1056.28	38.3503
1059.17	5.66406
1062.06	72.916
1064.95	197.073
1067.85	252.874
1070.74	201.164
1073.63	109.758
1076.53	60.1484
1079.42	98.2173
1082.31	130.621
1085.2	118.207
1088.1	119.539
1090.99	175.465
1093.88	161.001
1096.77	101.999
1099.67	111.109
1102.56	207.769
1105.45	218.829
1108.35	233.23
1111.24	275.485
1114.13	214.752
1117.02	112.59
1119.91	123.355
1122.81	42.7588
1125.7	53.8242
1128.59	8.58398
1131.49	0.952148
