Measurement: Raman, 532 nm, unoriented, Raman Data Processed
Mineral: Sartorite
Rruff sample: R130104
Ideal chemistry: Pb^2+^As^3+^_2_S^2-^_4_
Locality: Lengenbach Quarry, Im Feld, Binn Valley, Wallis, Switzerland
Source: Donald Doell (Small piece), Rock Currier (Large piece)
Description: Prismatic dark lead-grey crystals, associated with pyrite, dolomite, and quartz.
Raman shift (cm-1)	intensity
197.356	0
200.249	0.033752
203.141	0.764648
206.034	3.95796
208.927	7.76511
211.819	5.02617
214.712	5.94721
217.605	6.28411
220.497	4.96896
223.39	7.13361
226.283	5.41018
229.175	5.26108
232.068	4.10487
234.961	3.88211
237.854	4.2596
240.746	2.58809
243.639	2.41373
246.532	2.29829
249.424	2.321
252.317	3.83645
255.21	5.24757
258.103	4.79442
260.995	3.19041
263.888	5.02667
266.781	7.40504
269.673	8.58497
272.566	9.09991
275.459	7.13052
278.351	6.91029
281.244	7.70189
284.137	8.17964
287.029	8.83153
289.922	9.12401
292.815	9.76608
295.708	8.2174
298.6	6.4294
301.493	8.79265
304.386	5.93511
307.278	4.18761
310.171	3.57262
313.064	4.01395
315.957	3.1379
318.849	1.74926
321.742	2.19354
324.635	1.86929
327.527	2.80191
330.42	2.2383
333.313	2.66707
336.205	4.13682
339.098	3.42576
341.991	6.08577
344.884	10.8196
347.776	12.0483
350.669	17.6619
353.562	19.7502
356.454	23.856
359.347	23.0749
362.24	24.7552
365.132	20.5921
368.025	18.1442
370.918	17.3618
373.81	14.9601
376.703	13.6853
379.596	9.30012
382.489	4.8601
385.381	2.63783
388.274	1.24893
391.167	0.926086
394.059	1.36469
396.952	0.458698
399.845	0.310699
402.738	0.295723
405.63	0.261475
408.523	0.205509
411.416	1.66972
414.308	0.914499
417.201	1.30591
420.094	3.18949
422.986	2.61068
425.879	1.00852
428.772	3.47811
431.664	2.82121
434.557	2.1478
437.45	4.52972
440.343	3.2831
443.235	3.96069
446.128	2.9843
449.021	4.65459
451.913	3.95272
454.806	4.14064
457.699	3.84403
460.591	4.2672
463.484	2.96825
466.377	2.83546
469.27	4.15351
472.162	3.13293
475.055	2.99492
477.948	2.81031
480.84	2.07035
483.733	1.74693
486.626	2.43493
489.519	2.653
492.411	1.80386
495.304	0.419418
498.197	0.532953
501.089	1.90851
503.982	1.68347
506.875	0.811705
509.767	1.14591
512.66	1.44706
515.553	0.878653
518.446	0.298222
521.338	1.46397
524.231	0.515867
527.124	1.3573
530.016	0.574583
532.909	1.44903
535.802	2.58985
538.694	1.83574
541.587	0.396042
544.48	0.432919
547.372	0.503937
550.265	0.671389
553.158	0.069864
556.051	0.284235
558.943	1.57716
561.836	0.625664
564.729	0.618036
567.621	0.059546
570.514	0.793318
573.407	0.035236
576.299	0.488516
579.192	0.71891
582.085	0.085773
584.978	1.00647
587.87	0.040506
590.763	1.08268
593.656	1.10564
596.548	1.06885
599.441	0.278666
602.334	2.57724
605.226	1.1631
608.119	1.93541
611.012	0.346573
613.905	1.35118
616.797	1.57762
619.69	1.76911
622.583	1.0659
625.475	2.86618
628.368	1.06807
631.261	0.647198
634.154	0.193693
637.046	2.66694
639.939	1.68269
642.832	1.61795
645.724	1.8964
648.617	1.69366
651.51	1.45371
654.402	1.68145
657.295	0.632711
660.188	0.912464
663.081	0.00565
665.973	1.45096
668.866	1.29291
671.759	0.333591
674.651	0.06134
677.544	1.80529
680.437	0.151829
683.329	0.691078
686.222	1.79269
689.115	1.16023
692.008	2.02337
694.9	2.00131
697.793	0.650198
700.686	0.9251
703.578	0.461338
706.471	1.07444
709.364	0.323475
712.256	0.01219
715.149	0.478414
718.042	1.14143
720.934	0.947513
723.827	1.33927
726.72	1.29224
729.613	0.18654
732.505	1.45072
735.398	3.28958
738.291	1.27109
741.183	1.8394
744.076	0.926468
746.969	2.06888
749.861	1.328
752.754	1.03959
755.647	2.05459
758.54	2.25188
761.432	0.582709
764.325	1.03054
767.218	0.939792
770.11	1.19942
773.003	1.85528
775.896	0.577459
778.788	0.355623
781.681	0.686194
784.574	0.834913
787.467	0.484961
790.359	0.927364
793.252	1.10532
796.145	1.00631
799.037	0.181278
801.93	1.6543
804.823	0.135307
807.716	1.41982
810.608	0.800035
813.501	1.45325
816.394	2.22044
819.286	1.77772
822.179	1.5538
825.072	1.70843
827.964	0.585019
830.857	0.977014
833.75	1.35987
836.643	1.76367
839.535	1.97124
842.428	1.55481
845.321	0.47997
848.213	1.52405
851.106	1.5623
853.999	1.54245
856.891	0.754566
859.784	0.445252
862.677	1.1248
865.569	1.9672
868.462	0.290664
871.355	0.025076
874.248	0.807488
877.14	1.74456
880.033	0.571946
882.926	1.11609
885.818	0.3464
888.711	1.06375
891.604	1.19084
894.496	0.821887
897.389	0.558512
900.282	0.627942
903.175	1.06333
906.067	0.114998
908.96	1.90338
911.853	1.65716
914.745	1.78085
917.638	0.290473
920.531	1.2047
923.423	0.552996
926.316	0.279157
929.209	1.27883
932.102	1.3519
934.994	0.154716
937.887	1.01596
940.78	0.03755
943.672	0.17158
946.565	1.30126
949.458	1.7747
952.351	0.969687
955.243	0.956255
958.136	1.79194
961.029	1.89185
963.921	1.62151
966.814	1.48249
969.707	1.37966
972.599	1.94237
975.492	2.067
978.385	1.3336
981.278	0.411016
984.17	1.51536
987.063	0.748694
989.956	0.492341
992.848	1.53108
995.741	0.229837
998.634	0.634334
1001.53	0.963969
1004.42	2.03355
1007.31	0.604009
1010.21	1.44205
1013.1	1.73521
1015.99	1.2019
1018.88	0.182786
1021.77	0.527514
1024.67	0.677279
1027.56	1.27764
1030.45	0.903382
1033.35	2.22538
1036.24	0.239301
1039.13	2.21103
1042.02	0.910966
1044.92	0.268398
1047.81	1.09808
1050.7	1.4459
1053.6	2.09239
1056.49	1.57014
1059.38	0.384086
1062.27	1.84565
1065.17	2.07164
1068.06	1.9061
1070.95	1.73299
1073.84	0.646531
1076.74	1.41633
1079.63	1.65408
1082.52	1.11388
1085.41	2.45553
1088.31	1.03398
1091.2	2.19342
1094.09	0.01448
1096.99	2.011
1099.88	0.759478
1102.77	0.696417
1105.66	0.635582
1108.56	0.331271
1111.45	0.928437
1114.34	1.40157
1117.23	1.38066
1120.13	0.328965
1123.02	0.333848
1125.91	0.935356
1128.81	1.63913
1131.7	1.43065
1134.59	0.736471
1137.48	1.14971
1140.38	1.07494
1143.27	1.12659
1146.16	1.83349
1149.05	0.622019
1151.95	2.04767
1154.84	1.76913
1157.73	0.550567
1160.62	1.7186
1163.52	0.797092
1166.41	1.81339
1169.3	1.62142
1172.2	0.981978
1175.09	1.27206
1177.98	0.762334
1180.87	0.852192
1183.77	0.611165
1186.66	0.892899
1189.55	1.19407
1192.44	1.75612
1195.34	0.70938
1198.23	1.6171
1201.12	1.66203
1204.02	0.69185
1206.91	2.03456
1209.8	1.74529
1212.69	1.42124
1215.59	1.29288
1218.48	0.356117
1221.37	0.833167
1224.26	1.8334
1227.16	2.73812
1230.05	0.689348
1232.94	2.53239
1235.84	1.35207
1238.73	0.549478
1241.62	0.948191
1244.51	1.49475
1247.41	0.552694
1250.3	0.898252
1253.19	1.91197
1256.08	1.64269
1258.98	0.89334
1261.87	1.94633
1264.76	2.01698
1267.65	2.32479
1270.55	0.688087
1273.44	1.57041
1276.33	0.182492
1279.23	0.700499
1282.12	0.951444
1285.01	1.11563
1287.9	0.644389
1290.8	2.00719
1293.69	1.45324
1296.58	0.724664
1299.47	0.614891
