Measurement: Raman, 532 nm, unoriented, Raman Data Processed
Mineral: Sassolite
Rruff sample: R060224
Ideal chemistry: B(OH)_3_
Locality: Tuscany, Italy
Source: Marcus Origlieri
Description: Colorless micaceous aggregate
Raman shift (cm-1)	intensity
171.145	0
174.038	87.9062
176.931	135.555
179.823	138.375
182.716	70.3242
185.609	125.777
188.501	200.471
191.394	286.926
194.287	357.83
197.179	360.268
200.072	445.975
202.965	593.9
205.858	786.506
208.75	909.826
211.643	877.529
214.536	652.852
217.428	419.885
220.321	296.682
223.214	255.633
226.107	227.318
228.999	192.404
231.892	125.053
234.785	48.918
237.677	1.43555
240.57	0.275391
243.463	48.332
246.355	128.639
249.248	130.535
252.141	101.566
255.034	92.207
257.926	77.959
260.819	117.682
263.712	35.6992
266.604	40.1816
269.497	44.3691
272.39	1.77148
275.282	36.6602
278.175	30.248
281.068	40.6523
283.961	13.5879
286.853	28.0918
289.746	0.849609
292.639	59.7852
295.531	96.3477
298.424	79.5195
301.317	44.9199
304.209	37.5625
307.102	95.5918
309.995	140.902
312.887	120.123
315.78	123.676
318.673	61.7734
321.566	67.9629
324.458	58.4082
327.351	71.7402
330.244	96.3769
333.136	124.158
336.029	116.041
338.922	165.867
341.815	169.049
344.707	118.117
347.6	88.9492
350.493	97.918
353.385	99.2246
356.278	92.8496
359.171	72.0039
362.063	83.9004
364.956	154.664
367.849	129.541
370.741	84.6191
373.634	47.9102
376.527	64.2852
379.42	95.2324
382.312	47.875
385.205	7.82422
388.098	28.4883
390.99	124.356
393.883	152.144
396.776	130.035
399.668	139.588
402.561	75.2441
405.454	24.0605
408.347	0.472656
411.239	15.041
414.132	71.4238
417.025	52.002
419.917	40.5938
422.81	80.5391
425.703	93.3672
428.596	16.9805
431.488	10.0293
434.381	32.7168
437.274	1.05664
440.166	61.6328
443.059	66.0137
445.952	65.6035
448.844	66.5664
451.737	97.7441
454.63	39.752
457.522	33.8203
460.415	116.561
463.308	79.7793
466.201	92.3047
469.093	37.7031
471.986	33.457
474.879	92.5215
477.771	105.234
480.664	109.459
483.557	113.363
486.45	235.393
489.342	342.16
492.235	474.865
495.128	624.088
498.02	878.898
500.913	988.967
503.806	418.623
506.698	160.435
509.591	147.68
512.484	122.094
515.376	46.8652
518.269	20.7617
521.162	15.8594
524.055	22.7812
526.947	2.1582
529.84	72.707
532.733	124.584
535.625	155.277
538.518	107.906
541.411	117.426
544.303	154.961
547.196	142.801
550.089	225.344
552.982	145.715
555.874	172.285
558.767	142.402
561.66	117.469
564.552	112.789
567.445	119.34
570.338	95.1172
573.231	126.785
576.123	155.457
579.016	154.695
581.909	176.191
584.801	139.477
587.694	164.555
590.587	126.332
593.479	111.184
596.372	102.535
599.265	96.4023
602.157	177.418
605.05	190.211
607.943	178.809
610.836	161.742
613.728	130.531
616.621	72.9688
619.514	58.5234
622.406	24.5352
625.299	45.0742
628.192	68.75
631.084	63.2539
633.977	71.2617
636.87	76.1406
639.763	193.031
642.655	130.297
645.548	96.8594
648.441	96.6953
651.333	101.688
654.226	163.273
657.119	123.344
660.011	132.922
662.904	105.527
665.797	119.969
668.689	118.188
671.582	183.578
674.475	119.492
677.368	77.0938
680.26	10.9883
683.153	30.2344
686.046	53.3867
688.938	19.6641
691.831	131.371
694.724	115.227
697.616	88.1406
700.509	148.09
703.402	83.8203
706.295	53.2852
709.187	38.082
712.08	39.5781
714.973	79.1172
717.865	107.781
720.758	85.4102
723.651	112.246
726.543	137.152
729.436	160.574
732.329	31.5664
735.222	75.3555
738.114	5.61328
741.007	58.3828
743.9	41.832
746.792	47.3164
749.685	24.7109
752.578	4.625
755.471	32.9688
758.363	27.1328
761.256	65.1641
764.149	87.2109
767.041	27.1562
769.934	1.35547
772.827	1.90625
775.719	25.9336
778.612	28.1406
781.505	95.1094
784.398	129.055
787.29	183.398
790.183	62.7461
793.076	46.5117
795.968	88.7656
798.861	84.3086
801.754	150.664
804.646	148.977
807.539	154.297
810.432	180.289
813.324	119.144
816.217	125.125
819.11	34.6836
822.003	97.3672
824.895	101.691
827.788	92.2734
830.681	59.375
833.573	46.3945
836.466	96.4297
839.359	14.0664
842.251	76.2422
845.144	65.1211
848.037	92.6445
850.93	49.1602
853.822	33.3984
856.715	76.2305
859.608	122.652
862.5	317.289
865.393	427.824
868.286	582.391
871.178	936.18
874.071	1434.77
876.964	2360.1
879.857	3341.81
882.749	3228.24
885.642	1543.09
888.535	629.731
891.427	357.16
894.32	163.344
897.213	88.2578
900.106	79.4883
902.998	117.289
905.891	83.8789
908.784	107.445
911.676	112.688
914.569	82.3633
917.462	48.5664
920.354	51.3164
923.247	16.1328
926.14	5.81641
929.033	59.3047
931.925	57.3438
934.818	66.9453
937.711	30.6172
940.603	69.3711
943.496	60.793
946.389	62.5859
949.281	3.82812
952.174	7.33984
955.067	31.2812
957.96	24.3906
960.852	6.70312
963.745	12.4297
966.638	68.8594
969.53	64.0234
972.423	9.69141
975.316	42.7422
978.208	124.812
981.101	194.984
983.994	167.516
986.886	196.93
989.779	224.652
992.672	221.617
995.564	186.25
998.457	133.039
1001.35	105.789
1004.24	45.9336
1007.13	68.4141
1010.03	90.1133
1012.92	31.332
1015.81	15.1641
1018.71	38.6016
1021.6	163.402
1024.49	131.121
1027.38	85.7344
1030.28	62.8086
1033.17	0.679688
1036.06	92.8594
1038.95	65.4648
1041.85	4.375
1044.74	0.738281
1047.63	16.9141
1050.53	107.394
1053.42	117.043
1056.31	69.9531
1059.2	59.1367
1062.1	46.0664
1064.99	137.301
1067.88	50.4492
1070.78	107.035
1073.67	114.562
1076.56	142.664
1079.45	111.316
1082.35	158.609
1085.24	161.164
1088.13	234.578
1091.02	310.816
1093.92	372.098
1096.81	351.562
1099.7	319.539
1102.59	347.156
1105.49	201.644
1108.38	241.312
1111.27	280.957
1114.16	269.68
1117.06	275.57
1119.95	216.481
1122.84	173.191
1125.74	73.9062
1128.63	140.383
1131.52	132.398
1134.41	124.391
1137.31	134.644
1140.2	223.078
1143.09	219.492
1145.98	149.512
1148.88	174.613
1151.77	197.734
1154.66	193.496
1157.56	174.309
1160.45	128.754
1163.34	132.758
1166.23	182.328
1169.13	147.176
1172.02	144.316
1174.91	114.43
1177.81	126.734
1180.7	0.082031
1183.59	21.6641
1186.48	84.2617
1189.38	66.3242
1192.27	32.1055
1195.16	62.8008
1198.05	71.1172
1200.95	11.1875
1203.84	64.4453
1206.73	53.8906
1209.62	56.9023
1212.52	100.043
1215.41	122.242
1218.3	128.184
1221.19	119.859
1224.09	111.125
1226.98	127.008
1229.87	60.3672
1232.77	39.1445
1235.66	7.27344
1238.55	47.6738
1241.44	176.383
1244.34	196.211
1247.23	126.543
1250.12	63.8867
1253.02	99.668
1255.91	91.2305
1258.8	148.027
1261.69	74.0703
1264.59	108.18
1267.48	91.1211
1270.37	188.356
1273.26	48.8633
1276.16	139.723
1279.05	55.3633
1281.94	46.9609
1284.83	43.6523
1287.73	71.9805
1290.62	65.8359
1293.51	15.0352
1296.4	100.738
1299.3	116.988
1302.19	149.914
