Measurement: Raman, 780 nm, unoriented, Raman Data Processed
Mineral: Sassolite
Rruff sample: R060224
Ideal chemistry: B(OH)_3_
Locality: Tuscany, Italy
Source: Marcus Origlieri
Description: Colorless micaceous aggregate
Raman shift (cm-1)	intensity
114.004	0
117.379	1.14087
120.754	16.1499
124.129	23.7161
127.504	5.85059
130.879	18.7314
134.253	12.166
137.628	18.4893
141.003	16.407
144.378	6.46899
147.753	6.14771
151.127	4.42627
154.502	10.1609
157.877	10.0935
161.252	15.0198
164.627	20.8669
168.002	39.3782
171.376	9.65063
174.751	12.4514
178.126	21.5273
181.501	35.23
184.876	34.8726
188.25	53.4614
191.625	84.958
195	107.2
198.375	127.56
201.75	121.251
205.125	121.5
208.499	109.922
211.874	83.8931
215.249	58.2935
218.624	41.7918
221.999	43.3252
225.374	33.1318
228.748	7.80054
232.123	13.3079
235.498	4.00537
238.873	11.8938
242.248	0.069336
245.622	11.2925
248.997	7.69653
252.372	8.20435
255.747	1.09766
259.122	6.9978
262.496	8.24463
265.871	12.1396
269.246	16.3264
272.621	19.1946
275.996	22.0789
279.37	12.1802
282.745	10.7986
286.12	10.2434
289.495	17.075
292.87	23.7766
296.245	6.9519
299.619	12.8938
302.994	12.3726
306.369	5.74683
309.744	7.14917
313.119	4.03418
316.493	16.564
319.868	13.2832
323.243	11.127
326.618	1.54126
329.993	12.8184
333.368	3.15137
336.742	4.96362
340.117	4.27637
343.492	8.89941
346.867	1.80054
350.242	10.9165
353.616	1.23758
356.991	10.1641
360.366	7.47436
363.741	11.457
367.116	0.718506
370.491	15.5989
373.865	7.65405
377.24	2.75147
380.615	4.29468
383.99	14.3965
387.365	7.39356
390.74	27.7009
394.114	29.2666
397.489	35.8279
400.864	47.0806
404.239	34.5129
407.614	55.2019
410.988	53.1174
414.363	51.6645
417.738	52.311
421.113	68.2212
424.488	69.7324
427.863	82.9048
431.237	86.1047
434.612	91.302
437.987	92.97
441.362	74.3364
444.736	89.1072
448.111	87.1721
451.486	93.5442
454.861	72.1912
458.236	82.2522
461.611	71.1245
464.985	73.0923
468.36	53.1045
471.735	48.259
475.11	57.811
478.485	49.2952
481.86	72.186
485.234	95.2666
488.609	102.134
491.984	105.691
495.359	115.516
498.734	102.096
502.108	30.7014
505.483	1.12891
508.858	4.39087
512.233	7.11108
515.608	2.43115
518.982	7.37036
522.357	3.43677
525.732	6.82239
529.107	15.8008
532.482	29.3604
535.857	28.5537
539.231	33.4539
542.606	41.6174
545.981	49.0571
549.356	61.4082
552.731	71.8364
556.106	58.4995
559.48	56.1357
562.855	43.5967
566.23	41.5327
569.605	47.1274
572.98	41.1082
576.354	33.7063
579.729	24.4831
583.104	28.8281
586.479	30.6335
589.854	27.51
593.229	26.3696
596.603	29.8328
599.978	22.5344
603.353	23.9123
606.728	15.3979
610.102	13.8955
613.477	6.99194
616.852	18.7034
620.227	13.7124
623.602	10.0491
626.977	13.3904
630.351	5.86133
633.726	14.6648
637.101	6.90625
640.476	10.5967
643.851	5.69751
647.226	16.9072
650.6	22.6794
653.975	6.0271
657.35	1.56958
660.725	0.985596
664.1	2.55469
667.474	3.50977
670.849	4.03345
674.224	5.76294
677.599	6.56811
680.974	4.23193
684.348	1.86572
687.723	6.60669
691.098	1.84058
694.473	6.26709
697.848	1.0271
701.223	6.66333
704.597	6.59619
707.972	20.4253
711.347	19.7029
714.722	8.7312
718.097	11.5776
721.471	10.3411
724.846	4.39307
728.221	7.59375
731.596	17.8833
734.971	3.56543
738.346	0.567871
741.72	8.57739
745.095	2.47168
748.47	5.76221
751.845	15.0674
755.22	8.33472
758.595	2.63086
761.969	0.578125
765.344	3.24097
768.719	18.4959
772.094	24.3848
775.469	24.3189
778.843	16.7341
782.218	37.2556
785.593	32.6956
788.968	35.4758
792.343	37.5261
795.717	41.4219
799.092	39.8569
802.467	42.2837
805.842	56.1977
809.217	66.0051
812.592	73.7034
815.966	43.812
819.341	36.7273
822.716	25.5054
826.091	11.8467
829.466	13.092
832.84	7.5874
836.215	3.42358
839.59	14.7273
842.965	6.99756
846.34	15.0498
849.715	20.1472
853.089	17.4607
856.464	31.6211
859.839	39.1594
863.214	85.0681
866.589	168.37
869.963	238.477
873.338	287.491
876.713	324.179
880.088	269.474
883.463	124.254
886.837	75.8752
890.212	17.5098
893.587	8.05518
896.962	0.157959
900.337	10.8892
903.712	0.4729
907.086	5.20288
910.461	7.00952
913.836	0.302979
917.211	3.30542
920.586	5.47559
923.96	6.62134
927.335	7.10303
930.71	19.989
934.085	24.0742
937.46	16.9582
940.835	28.3445
944.209	26.095
947.584	31.6104
950.959	32.8135
954.334	31.2092
957.709	27.4812
961.083	37.249
964.458	33.7051
967.833	30.1419
971.208	25.7573
974.583	15.0166
977.957	22.6143
981.332	26.4062
984.707	24.4402
988.082	16.2031
991.457	19.9668
994.832	24.0689
998.206	13.2949
1001.58	7.56982
1004.96	5.0896
1008.33	2.49438
1011.71	2.09399
1015.08	0.705322
1018.46	1.55884
1021.83	10.6936
1025.2	2.91919
1028.58	9.00562
1031.95	6.31152
1035.33	12.4006
1038.7	28.2383
1042.08	21.8496
1045.45	38.9907
1048.83	39.8977
1052.2	37.6748
1055.58	40.655
1058.95	53.0859
1062.33	50.221
1065.7	45.044
1069.08	50.2578
1072.45	59.5906
1075.83	61.3486
1079.2	67.7139
1082.58	82.0784
1085.95	92.5544
1089.33	80.6433
1092.7	75.2903
1096.08	75.8257
1099.45	65.6265
1102.83	60.5574
1106.2	59.55
1109.58	67.0867
1112.95	52.0164
1116.33	47.7087
1119.7	28.269
1123.08	37.6521
1126.45	23.3264
1129.82	15.6804
1133.2	7.52783
1136.57	10.1738
1139.95	12.686
1143.32	4.39087
1146.7	10.4002
1150.07	5.33374
1153.45	4.13184
1156.82	1.13355
1160.2	8.84009
1163.57	8.83984
1166.95	21.6755
1170.32	4.25415
1173.7	16.6348
1177.07	3.70239
1180.45	15.6226
1183.82	0.708008
1187.2	8.65649
1190.57	16.6457
1193.95	17.1069
1197.32	14.2266
1200.69	11.8389
1204.07	18.9375
1207.44	21.2151
1210.82	26.1614
1214.19	35.0042
1217.57	30.0794
1220.94	32.8982
1224.32	41.2263
1227.69	52.8618
1231.07	36.8618
1234.44	34.0955
1237.82	39.1062
1241.19	36.4282
1244.57	38.2681
1247.94	37.6519
1251.32	27.8042
1254.69	17.6157
1258.07	10.9219
1261.44	17.9258
1264.82	19.9285
1268.19	4.05737
1271.57	5.54053
1274.94	9.27466
1278.32	0.039551
1281.69	23.0618
1285.07	0
