Measurement: Raman, 532 nm, unoriented, Raman Data Processed
Mineral: Scainiite
Rruff sample: R100085
Ideal chemistry: Pb^2+^_14_Sb^3+^_30_S^2-^_54_O_5_
Locality: Dúbrava, Northern Low Tatra Mts, Žilina Region, Slovakia
Source: William W Pinch
Description: Parallel aggregates of metallic gray acicular crystals
Raman shift (cm-1)	intensity
124.722	0
128.097	0.690587
131.472	4.90527
134.847	2.28431
138.222	2.92934
141.597	0.142988
144.971	2.87
148.346	3.22943
151.721	7.74571
155.096	10.1738
158.471	10.453
161.845	14.5961
165.22	12.7653
168.595	14.9191
171.97	13.278
175.345	10.5996
178.72	11.9676
182.094	11.0959
185.469	10.5681
188.844	10.2413
192.219	10.7696
195.594	9.78046
198.968	11.5876
202.343	11.8891
205.718	9.00883
209.093	10.577
212.468	11.2143
215.843	9.93094
219.217	8.97702
222.592	8.81014
225.967	10.4827
229.342	10.2357
232.717	7.12315
236.091	7.11831
239.466	9.84212
242.841	8.69608
246.216	3.57657
249.591	8.72208
252.965	5.40404
256.34	4.46117
259.715	7.12873
263.09	2.859
266.465	3.17569
269.84	3.25288
273.214	0.760696
276.589	0.325022
279.964	1.04991
283.339	2.08403
286.714	0.119728
290.089	0.470947
293.463	0.409041
296.838	2.55746
300.213	1.86253
303.588	4.19744
306.963	4.29173
310.337	2.61951
313.712	8.69664
317.087	10.6344
320.462	9.68225
323.837	10.4614
327.212	11.4882
330.586	13.4101
333.961	18.5786
337.336	17.3986
340.711	14.8708
344.086	11.1677
347.46	16.1228
350.835	11.9964
354.21	6.35208
357.585	2.98325
360.96	1.54575
364.334	1.47933
367.709	0.297628
371.084	0.696037
374.459	0.538294
377.834	0.170159
381.209	1.51395
384.583	2.62602
387.958	0.829428
391.333	3.4311
394.708	1.73684
398.083	1.1521
401.457	2.13148
404.832	2.72217
408.207	2.94667
411.582	2.49642
414.957	1.55041
418.332	4.96446
421.706	1.95189
425.081	1.39816
428.456	1.27012
431.831	0.669417
435.206	3.5623
438.58	2.96615
441.955	0.834802
445.33	2.45651
448.705	2.51847
452.08	2.35214
455.454	1.76221
458.829	0.935408
462.204	3.0015
465.579	1.77016
468.954	3.81404
472.329	1.8276
475.703	3.19215
479.078	2.56389
482.453	1.51079
485.828	0.57589
489.203	3.33058
492.577	1.00728
495.952	0.744213
499.327	2.06695
502.702	1.29227
506.077	1.72619
509.452	2.39591
512.826	3.5169
516.201	4.27408
519.576	2.12945
522.951	2.57285
526.326	2.2986
529.701	0.093941
533.075	1.36
536.45	1.10122
539.825	2.28475
543.2	1.76846
546.575	2.92101
549.949	1.4133
553.324	2.0346
556.699	2.16217
560.074	3.84507
563.449	2.28355
566.823	3.17888
570.198	0.532001
573.573	1.48992
576.948	1.17452
580.323	2.09098
583.697	2.39386
587.072	0.557407
590.447	1.61702
593.822	1.07866
597.197	1.92511
600.572	0.327044
603.946	2.23153
607.321	1.89239
610.696	0.670782
614.071	1.75959
617.446	3.22682
620.821	3.26119
624.195	3.38932
627.57	1.21565
630.945	0.226158
634.32	2.56017
637.695	0.946349
641.069	1.01458
644.444	0.977505
647.819	0.698996
651.194	0.431587
654.569	1.07394
657.943	1.42379
661.318	1.78344
664.693	2.16434
668.068	2.91651
671.443	3.45034
674.818	2.05201
678.192	0.387393
681.567	2.89087
684.942	1.91263
688.317	0.313472
691.692	0.819756
695.067	1.49857
698.441	0.455643
701.816	2.94441
705.191	1.15168
708.566	0.941644
711.941	2.50793
715.315	0.380827
718.69	2.21688
722.065	2.22447
725.44	1.77264
728.815	1.51445
732.189	1.23253
735.564	0.990723
738.939	1.78552
742.314	1.0154
745.689	0.74244
749.063	2.58669
752.438	2.09367
755.813	1.41445
759.188	0.505586
762.563	1.51567
765.938	2.12599
769.312	1.96227
772.687	1.16907
776.062	1.56688
779.437	1.32373
782.812	1.07429
786.187	2.22189
789.561	1.53515
792.936	1.39909
796.311	0.940646
799.686	0.688192
803.061	1.02447
806.435	1.09707
809.81	1.60691
813.185	1.04124
816.56	0.984063
819.935	0.296524
823.309	1.25167
826.684	2.58023
830.059	0.654161
833.434	2.29406
836.809	1.53025
840.184	0.442207
843.558	2.34531
846.933	0.406043
850.308	1.99256
853.683	1.08645
857.058	1.85525
860.433	2.35983
863.807	2.84139
867.182	0.268763
870.557	1.62569
873.932	1.39816
877.307	2.27007
880.681	2.46477
884.056	1.48106
887.431	1.49786
890.806	1.13755
894.181	0.237028
897.556	2.20353
900.93	1.05315
904.305	1.0451
907.68	2.01312
911.055	2.99545
914.43	1.34018
917.804	1.00134
921.179	2.30396
924.554	1.33372
927.929	2.43895
931.304	0.290765
934.678	1.07482
938.053	0.506465
941.428	2.24117
944.803	1.49069
948.178	1.60428
951.553	0.961412
954.927	2.59322
958.302	1.07451
961.677	2.05443
965.052	1.13739
968.427	1.39293
971.802	0.778885
975.176	1.7144
978.551	1.28396
981.926	1.65198
985.301	2.61192
988.676	2.48521
992.05	1.50391
995.425	0.015125
998.8	1.24261
1002.17	1.84769
1005.55	1.24984
1008.92	2.01309
1012.3	2.55368
1015.67	0.684588
1019.05	2.03936
1022.42	2.50913
1025.8	1.60136
1029.17	2.07235
1032.55	1.17292
1035.92	1.45177
1039.3	0.956562
1042.67	1.21846
1046.05	2.35698
1049.42	1.61151
1052.8	3.07291
1056.17	3.14947
1059.55	3.71302
1062.92	0.53307
1066.3	1.51595
1069.67	1.76192
1073.05	2.43283
1076.42	1.82675
1079.8	2.99427
1083.17	2.81424
1086.55	3.31076
1089.92	0.776045
1093.3	1.74632
1096.67	1.87412
1100.04	3.11755
1103.42	3.78325
1106.79	1.36802
1110.17	0.005502
1113.54	1.1548
1116.92	2.07401
1120.29	3.27949
1123.67	1.60702
1127.04	0.626003
1130.42	2.29377
1133.79	1.75466
1137.17	3.50571
1140.54	1.3598
1143.92	3.19738
1147.29	1.30961
1150.67	0.545056
1154.04	2.33342
1157.42	2.75266
1160.79	3.25144
1164.17	1.67895
1167.54	0.753261
1170.92	1.0032
1174.29	2.39127
1177.66	2.59832
1181.04	2.16359
1184.41	2.77423
1187.79	2.99631
1191.16	0.874242
1194.54	0.784137
1197.91	1.87105
1201.29	1.7927
1204.66	2.08387
1208.04	0.737923
1211.41	0.970077
1214.79	1.79353
1218.16	3.42477
1221.54	0.610295
1224.91	0.586786
1228.29	1.71082
1231.66	0.313131
1235.04	0.944255
1238.41	3.16191
1241.79	1.79773
1245.16	1.03361
1248.54	3.36291
1251.91	2.59299
1255.29	3.08187
1258.66	0.846375
1262.04	1.85023
1265.41	1.04296
1268.79	1.61795
1272.16	2.58778
1275.54	3.07156
1278.91	0.881248
1282.29	2.60571
1285.66	0.801953
1289.03	2.64807
1292.41	1.85295
1295.78	0.494353
1299.16	2.98598
1302.53	0.0207
