Measurement: Raman, 780 nm, unoriented, Raman Data Processed
Mineral: Schmiederite
Rruff sample: R100089
Ideal chemistry: Cu^2+^_2_Pb^2+^_2_(Se^4+^O_3_)(Se^6+^O_4_)(OH)_4_
Locality: El Condor mine, Los Llantenes, Sierra de Cacheuta, La Rioja Province, Argentina
Source: William W. Pinch
Description: Aggregates of blue bladed crystals
Raman shift (cm-1)	intensity
160.476	0
163.369	1.21036
166.261	3.27964
169.154	2.337
172.047	2.57595
174.939	2.55823
177.832	2.35871
180.725	0.796672
183.618	1.16756
186.51	1.64159
189.403	3.1981
192.296	3.07825
195.188	2.56459
198.081	2.46015
200.974	2.14723
203.866	2.35416
206.759	2.7497
209.652	1.90227
212.544	1.40795
215.437	1.75305
218.33	0.910514
221.223	4.28571
224.115	2.44301
227.008	2.37321
229.901	0.202401
232.793	4.27101
235.686	1.68503
238.579	2.34565
241.471	4.29058
244.364	4.04168
247.257	3.79348
250.15	3.79203
253.042	1.98292
255.935	2.7246
258.828	0.377541
261.72	0.585072
264.613	1.93137
267.506	2.30328
270.399	2.23496
273.291	1.79822
276.184	0.996199
279.077	2.16793
281.969	2.54457
284.862	1.35813
287.755	0.775989
290.647	1.2688
293.54	1.35178
296.433	0.589309
299.325	0.046894
302.218	0.638526
305.111	1.63039
308.004	1.67447
310.896	1.64531
313.789	3.18416
316.682	6.32807
319.574	7.99376
322.467	10.5718
325.36	13.6979
328.252	15.2142
331.145	18.2522
334.038	20.7904
336.931	18.7083
339.823	17.183
342.716	13.1677
345.609	9.70528
348.501	9.53482
351.394	7.26752
354.287	5.33113
357.18	7.28249
360.072	5.00247
362.965	5.85304
365.858	3.16638
368.75	4.95339
371.643	5.23808
374.536	4.64634
377.428	2.32608
380.321	2.01229
383.214	2.75029
386.106	1.47566
388.999	0.803455
391.892	2.26204
394.785	3.48057
397.677	1.06462
400.57	4.21082
403.463	6.69483
406.355	5.72169
409.248	1.48128
412.141	2.33759
415.034	0.167919
417.926	0.456732
420.819	0.784853
423.712	1.48245
426.604	2.06448
429.497	1.1738
432.39	0.483641
435.282	0.568378
438.175	0.341665
441.068	0.567759
443.961	3.25641
446.853	1.19218
449.746	2.13672
452.639	2.20642
455.531	4.80986
458.424	4.96705
461.317	6.4059
464.209	7.72466
467.102	8.04254
469.995	8.16444
472.887	7.47597
475.78	2.83028
478.673	2.80278
481.566	1.40745
484.458	0.787489
487.351	0.448711
490.244	1.82237
493.136	0.003754
496.029	2.09522
498.922	2.01535
501.815	0.243464
504.707	1.09892
507.6	1.49006
510.493	3.93247
513.385	4.87876
516.278	3.11684
519.171	5.4649
522.063	1.90408
524.956	3.78794
527.849	0.89748
530.741	4.24934
533.634	0.804224
536.527	3.45536
539.42	1.62011
542.312	1.65241
545.205	1.34695
548.098	1.5662
550.99	0.263292
553.883	0.84605
556.776	0.53315
559.668	1.46108
562.561	1.02729
565.454	2.12897
568.347	1.65155
571.239	1.58011
574.132	2.1456
577.025	1.52936
579.917	2.37951
582.81	1.60754
585.703	1.67547
588.596	3.47885
591.488	3.36875
594.381	2.04855
597.274	3.85654
600.166	4.05736
603.059	5.47046
605.952	3.9564
608.845	5.98286
611.737	4.47615
614.63	3.33174
617.523	4.30811
620.415	4.06351
623.308	2.12116
626.201	3.08168
629.093	2.19942
631.986	1.05916
634.879	0.806761
637.771	1.37896
640.664	2.14105
643.557	2.71128
646.45	3.85715
649.342	2.9605
652.235	3.06312
655.128	4.83324
658.02	3.89498
660.913	4.86832
663.806	3.5268
666.698	2.93621
669.591	2.94503
672.484	2.52536
675.377	2.72586
678.269	1.57151
681.162	0.230768
684.055	1.90491
686.947	0.388271
689.84	1.60163
692.733	1.24251
695.625	0.042282
698.518	1.94901
701.411	1.67907
704.304	0.085449
707.196	1.28093
710.089	1.92017
712.982	0.241179
715.874	2.34195
718.767	1.55989
721.66	1.64171
724.553	0.423532
727.445	3.22998
730.338	0.527836
733.231	2.34992
736.123	1.37137
739.016	0.413385
741.909	0.644249
744.801	1.7511
747.694	1.21355
750.587	1.65812
753.48	1.01011
756.372	0.512527
759.265	0.398029
762.158	1.1089
765.05	3.46855
767.943	4.02309
770.836	8.24478
773.728	9.31558
776.621	15.3666
779.514	21.5742
782.407	30.1989
785.299	34.7392
788.192	36.5653
791.085	36.8525
793.977	26.4904
796.87	19.9411
799.763	12.4595
802.655	10.8074
805.548	9.57996
808.441	10.7508
811.333	17.7231
814.226	21.2683
817.119	28.0195
820.012	34.2009
822.904	40.6368
825.797	42.4656
828.69	29.7911
831.582	24.1881
834.475	14.7567
837.368	15.3571
840.26	12.292
843.153	13.3687
846.046	10.1835
848.939	9.32099
851.831	8.23265
854.724	7.78253
857.617	7.82412
860.509	5.57408
863.402	2.69165
866.295	4.6859
869.188	2.47445
872.08	1.95281
874.973	2.98762
877.866	1.08881
880.758	0.690414
883.651	1.11232
886.544	0.627295
889.436	1.19188
892.329	0.058216
895.222	1.63514
898.115	1.13615
901.007	0.65407
903.9	0.453867
906.793	0.189842
909.685	2.29913
912.578	0.996582
915.471	4.16094
918.363	0.066347
921.256	1.63092
924.149	1.54049
927.042	2.15897
929.934	2.28504
932.827	2.52291
935.72	2.617
938.612	2.00209
941.505	4.48004
944.398	3.31056
947.29	3.97915
950.183	6.54562
953.076	6.3411
955.968	8.53227
958.861	10.899
961.754	16.4196
964.647	16.8395
967.539	14.3006
970.432	8.52795
973.325	7.05463
976.217	4.4286
979.11	1.79744
982.003	2.04397
984.895	1.59981
987.788	0.195452
990.681	1.48101
993.574	3.90395
996.466	3.29181
999.359	1.42783
1002.25	0.088594
1005.14	1.43968
1008.04	2.35202
1010.93	1.81405
1013.82	1.08113
1016.72	0.423708
1019.61	1.7696
1022.5	1.66243
1025.39	1.78111
1028.29	1.31539
1031.18	2.31017
1034.07	1.40654
1036.96	2.30205
1039.86	2.81035
1042.75	2.84649
1045.64	2.61881
1048.54	4.52647
1051.43	2.72662
1054.32	4.7701
1057.21	3.10524
1060.11	0.70414
1063	2.42148
1065.89	3.35991
1068.78	2.32757
1071.68	2.74951
1074.57	2.80091
1077.46	1.91575
1080.36	2.05553
1083.25	1.22927
1086.14	2.49774
1089.03	3.54553
1091.92	3.39217
1094.82	1.37598
1097.71	1.58367
1100.6	1.2759
1103.5	2.22133
1106.39	0.393234
1109.28	2.74598
1112.17	1.34069
1115.07	0.94562
1117.96	1.22811
1120.85	1.75319
1123.74	1.85704
1126.64	0.664583
1129.53	2.40883
1132.42	2.00736
1135.32	2.87122
1138.21	1.58021
1141.1	3.25812
1143.99	1.75035
1146.89	1.47544
1149.78	0.186703
1152.67	0.420202
1155.57	0.705896
1158.46	2.06597
1161.35	0.667965
1164.24	3.42605
1167.14	0.120579
1170.03	3.09379
1172.92	0.071217
1175.81	1.64244
1178.71	1.39375
1181.6	1.69291
1184.49	0.140888
1187.38	1.26805
1190.28	1.69801
1193.17	1.05146
1196.06	0.294328
1198.95	0.448952
1201.85	3.17579
1204.74	2.60141
1207.63	2.74745
1210.53	3.66451
1213.42	2.74615
1216.31	3.74851
1219.2	0.002621
1222.1	3.16791
1224.99	0.240252
1227.88	2.51167
1230.78	4.58983
1233.67	0.896367
1236.56	1.781
1239.45	4.28077
1242.35	1.60196
1245.24	1.63792
1248.13	1.83566
1251.02	2.99748
1253.92	1.22681
1256.81	2.20058
1259.7	2.13377
1262.6	0.805944
1265.49	1.23669
1268.38	1.37236
1271.27	3.18399
1274.17	0.11649
1277.06	1.60891
1279.95	0.71096
1282.84	1.43082
1285.74	0
