Measurement: Raman, 785 nm, unoriented, Raman Data Processed
Mineral: Schneiderhohnite
Rruff sample: R061004
Ideal chemistry: Fe^2+^Fe^3+^_3_As^3+^_5_O_13_
Locality: Urucum mine, Galileia, Minas Gerias, Brazil
Source: William W. Pinch
Description: Black prismatic crystals in parallel aggregates associated with arseniosiderite, arsenolite, scorodite and karibibite on lollingite
Raman shift (cm-1)	intensity
88.7441	0
92.119	27.2455
95.4938	35.4866
98.8686	50.9967
102.243	50.4343
105.618	63.5128
108.993	90.834
112.368	66.846
115.743	34.4536
119.118	22.3389
122.492	0.063019
125.867	8.54442
129.242	16.0546
132.617	13.4375
135.992	64.9405
139.366	41.2754
142.741	31.4481
146.116	83.8075
149.491	179.243
152.866	183.087
156.24	222.407
159.615	180.776
162.99	213.857
166.365	261.44
169.74	339.141
173.114	335.835
176.489	351.854
179.864	535.343
183.239	813.952
186.614	736.422
189.989	535.825
193.363	461.765
196.738	476.406
200.113	375.925
203.488	234.472
206.863	227.184
210.238	278.739
213.612	303.548
216.987	158.968
220.362	116.525
223.737	83.7474
227.112	123.987
230.486	199.126
233.861	333.76
237.236	443.839
240.611	511.784
243.986	336.048
247.36	208.451
250.735	160.818
254.11	119.627
257.485	68.4673
260.86	34.7929
264.235	37.4648
267.609	51.1767
270.984	31.662
274.359	17.7254
277.734	18.3032
281.109	30.3281
284.483	69.5866
287.858	120.087
291.233	170.462
294.608	169.827
297.983	164.068
301.358	99.1095
304.732	54.7053
308.107	4.78638
311.482	18.1974
314.857	1.14279
318.231	4.97839
321.606	18.9738
324.981	12.9379
328.356	32.8336
331.731	25.2132
335.106	33.6041
338.48	50.2849
341.855	81.7096
345.23	109.289
348.605	70.1903
351.98	83.5268
355.354	48.829
358.729	61.7693
362.104	94.8678
365.479	138.622
368.854	138.571
372.229	132.193
375.603	112.806
378.978	99.5942
382.353	69.4223
385.728	60.6848
389.103	18.7567
392.478	23.0076
395.852	28.0281
399.227	14.1668
402.602	23.6049
405.977	80.9343
409.352	95.3386
412.726	153.147
416.101	178.981
419.476	151.09
422.851	133.562
426.226	102.854
429.6	71.9617
432.975	62.5332
436.35	56.303
439.725	90.9536
443.1	54.8742
446.474	57.907
449.849	33.8592
453.224	35.8568
456.599	8.60593
459.974	4.806
463.349	19.5615
466.723	5.95721
470.098	10.4578
473.473	45.8451
476.848	52.3821
480.223	57.536
483.598	71.6618
486.972	78.6337
490.347	55.1501
493.722	74.4593
497.097	102.261
500.472	84.9824
503.846	140.818
507.221	168.782
510.596	182.985
513.971	159.727
517.346	95.3386
520.721	60.2413
524.095	0.227356
527.47	12.1856
530.845	9.54303
534.22	25.0783
537.595	19.9051
540.969	45.7448
544.344	75.1529
547.719	106.245
551.094	83.2609
554.469	70.5769
557.843	56.021
561.218	48.7991
564.593	4.83987
567.968	6.59918
571.343	28.072
574.717	79.1931
578.092	98.0188
581.467	82.8242
584.842	126.232
588.217	128.568
591.592	169.251
594.966	149.06
598.341	171.081
601.716	172.742
605.091	200.1
608.466	214.729
611.841	200.116
615.215	220.265
618.59	201.393
621.965	143.574
625.34	91.9959
628.715	93.8364
632.089	34.7078
635.464	47.9233
638.839	18.4877
642.214	38.5372
645.589	4.94519
648.963	33.4365
652.338	14.1597
655.713	7.93774
659.088	8.91605
662.463	0.180206
665.837	14.1162
669.212	7.1073
672.587	35.1857
675.962	46.7491
679.337	71.0229
682.712	43.5015
686.086	50.4672
689.461	45.686
692.836	46.8607
696.211	57.3208
699.586	19.2667
702.96	62.2381
706.335	44.1711
709.71	70.9875
713.085	53.1842
716.46	100.92
719.835	63.8844
723.209	50.8692
726.584	55.7396
729.959	27.4021
733.334	39.2676
736.709	20.6358
740.083	14.2418
743.458	1.13107
746.833	11.7586
750.208	16.8508
753.583	19.827
756.957	14.0897
760.332	33.3172
763.707	1.51419
767.082	29.4898
770.457	41.2601
773.832	45.7831
777.206	58.2865
780.581	56.3933
783.956	68.6665
787.331	45.4528
790.706	61.3088
794.08	93.5593
797.455	66.5459
800.83	35.7166
804.205	41.2739
807.58	58.2666
810.955	50.5853
814.329	26.1976
817.704	49.8243
821.079	22.8913
824.454	38.644
827.829	26.2123
831.203	10.7212
834.578	22.1094
837.953	11.3052
841.328	7.2411
844.703	9.15367
848.077	17.6715
851.452	5.00331
854.827	0.480789
858.202	1.20273
861.577	0.671051
864.952	26.1044
868.326	12.6951
871.701	14.6586
875.076	3.12407
878.451	29.7552
881.826	28.1997
885.2	21.539
888.575	44.0899
891.95	7.31952
895.325	42.7317
898.7	25.5819
902.074	47.6216
905.449	8.99499
908.824	59.0691
912.199	37.6676
915.574	23.8456
918.949	25.8944
922.323	3.90511
925.698	21.1625
929.073	46.9195
932.448	38.2585
935.823	37.4116
939.197	43.6294
942.572	25.1608
945.947	38.5208
949.322	17.2756
952.697	17.3863
956.072	23.2476
959.446	14.0534
962.821	32.6296
966.196	37.1441
969.571	52.2794
972.946	15.8714
976.32	19.4337
979.695	29.7467
983.07	42.437
986.445	11.9378
989.82	23.0943
993.194	17.6583
996.569	6.36447
999.944	32.8447
1003.32	39.4402
1006.69	51.8132
1010.07	28.5292
1013.44	38.7826
1016.82	15.6078
1020.19	14.8434
1023.57	14.0254
1026.94	24.3061
1030.32	14.0121
1033.69	16.479
1037.07	21.8515
1040.44	10.0276
1043.82	38.9027
1047.19	26.081
1050.57	6.03744
1053.94	18.0379
1057.32	16.5877
1060.69	48.2988
1064.07	14.7074
1067.44	17.296
1070.82	9.93022
1074.19	16.6443
1077.57	14.9025
1080.94	10.7847
1084.31	14.0638
1087.69	47.0454
1091.06	37.5518
1094.44	24.0145
1097.81	5.46083
1101.19	11.0446
1104.56	14.0912
1107.94	22.8155
1111.31	11.3811
1114.69	23.2638
1118.06	31.3329
1121.44	28.8719
1124.81	21.0747
1128.19	27.1281
1131.56	2.13315
1134.94	48.8364
1138.31	41.5174
1141.69	7.21342
1145.06	5.28536
1148.44	4.98619
1151.81	13.507
1155.19	12.4395
1158.56	48.3086
1161.93	25.3443
1165.31	28.3359
1168.68	55.3054
1172.06	6.63271
1175.43	54.6759
1178.81	15.8186
1182.18	40.2857
1185.56	30.361
1188.93	40.1124
1192.31	26.8412
1195.68	44.697
1199.06	31.9965
1202.43	20.8693
1205.81	29.2996
1209.18	0.496109
1212.56	13.0021
1215.93	32.9842
1219.31	44.3132
1222.68	40.7086
1226.06	42.5813
1229.43	45.358
1232.81	36.8376
1236.18	5.22379
1239.56	23.074
1242.93	55.8548
1246.31	47.8429
1249.68	31.0577
1253.06	22.6212
1256.43	31.9284
1259.81	44.6698
1263.18	35.9949
1266.56	13.8632
1269.93	28.5485
