Measurement: Raman, 780 nm, unoriented, Raman Data Processed
Mineral: Schorlomite
Rruff sample: R060349
Ideal chemistry: Ca_3_Ti^4+^_2_(Fe^3+^_2_Si)O_12_
Locality: Sundsvall, Medelpad, Sweden
Source: Marcus Origlieri
Description: Black massive, intimately associated with andradite
Raman shift (cm-1)	intensity
164.172	0
167.065	0.195392
169.958	0.105878
172.85	0.056304
175.743	0.607768
178.636	0.710383
181.529	0.156006
184.421	0.960788
187.314	1.87695
190.207	1.19484
193.099	2.08336
195.992	1.67129
198.885	1.94599
201.777	2.60747
204.67	2.87734
207.563	3.73427
210.456	4.03509
213.348	4.57952
216.241	4.61817
219.134	4.3211
222.026	5.07984
224.919	4.77124
227.812	4.31778
230.704	4.26349
233.597	3.97694
236.49	3.70577
239.382	3.48578
242.275	2.52034
245.168	2.44396
248.061	1.38783
250.953	1.14618
253.846	0.825599
256.739	0.008837
259.631	0.037136
262.524	0.030198
265.417	0.229882
268.31	0.024669
271.202	0.663671
274.095	0.246171
276.988	1.07229
279.88	1.56735
282.773	1.71008
285.666	2.44625
288.558	2.08659
291.451	2.87657
294.344	2.71605
297.237	3.02396
300.129	3.61502
303.022	3.42359
305.915	3.20191
308.807	3.05845
311.7	2.89927
314.593	1.38235
317.486	1.56741
320.378	0.343697
323.271	1.07985
326.164	0.09547
329.056	0.206293
331.949	0.76671
334.842	0.155676
337.734	0.427487
340.627	0.102264
343.52	0.20961
346.413	0.447349
349.305	0.304858
352.198	0.431182
355.091	0.01103
357.983	0.369512
360.876	0.06357
363.769	0.031877
366.661	0.053548
369.554	0.333
372.447	0.7487
375.339	0.765573
378.232	1.55847
381.125	2.93711
384.018	3.68071
386.91	4.70324
389.803	6.35267
392.696	7.11929
395.588	8.13859
398.481	9.60709
401.374	9.34743
404.267	8.82413
407.159	8.57889
410.052	7.74135
412.945	6.62321
415.837	5.43218
418.73	4.98798
421.623	3.69578
424.515	2.59989
427.408	1.69062
430.301	1.43941
433.194	0.867315
436.086	0.979896
438.979	0.650466
441.872	0.599646
444.764	0.29652
447.657	0.646232
450.55	0.26863
453.442	0.169988
456.335	0.02013
459.228	0.066116
462.121	0.387489
465.013	0.184269
467.906	0.067638
470.799	0.310856
473.691	0.198991
476.584	0.08164
479.477	0.390449
482.37	1.0097
485.262	0.898234
488.155	1.20011
491.048	1.58323
493.94	1.7462
496.833	2.26228
499.726	2.86965
502.618	2.77041
505.511	3.34733
508.404	3.28191
511.296	3.34913
514.189	2.95053
517.082	2.15027
519.975	2.02212
522.867	2.15705
525.76	1.41139
528.653	1.38494
531.545	0.620021
534.438	0.673905
537.331	0.132188
540.224	0.83237
543.116	1.22338
546.009	1.65998
548.902	1.1959
551.794	0.378514
554.687	0.137188
557.58	0.078273
560.472	0.138806
563.365	0.126369
566.258	0.183326
569.151	0.166631
572.043	0.326133
574.936	0.624201
577.829	1.45358
580.721	1.62722
583.614	2.15107
586.507	2.38707
589.399	2.68505
592.292	3.93588
595.185	4.45055
598.078	5.68383
600.97	5.88714
603.863	7.05382
606.756	7.59619
609.648	7.25978
612.541	8.24227
615.434	8.25896
618.327	8.22848
621.219	8.06166
624.112	8.20132
627.005	7.9681
629.897	6.55688
632.79	6.4431
635.683	5.448
638.575	4.83126
641.468	3.78287
644.361	3.2327
647.254	2.50252
650.146	2.38876
653.039	1.79638
655.932	1.83689
658.824	1.10232
661.717	1.05353
664.61	1.06631
667.502	0.875009
670.395	0.152565
673.288	0.103329
676.181	0.031895
679.073	0.328881
681.966	0.150352
684.859	0.187366
687.751	0.188445
690.644	0.049045
693.537	0.039011
696.429	0.09559
699.322	0.665001
702.215	0.502748
705.107	1.13273
708	1.15494
710.893	2.02956
713.786	1.49729
716.678	3.56911
719.571	4.38986
722.464	4.92636
725.356	5.95936
728.249	6.7942
731.142	7.89347
734.035	8.51628
736.927	9.85931
739.82	9.7379
742.713	10.0993
745.605	11.0505
748.498	11.3247
751.391	11.3743
754.284	11.6095
757.176	11.0085
760.069	10.6245
762.962	8.64364
765.854	7.88657
768.747	7.69006
771.64	5.63838
774.532	4.8716
777.425	4.26138
780.318	3.10446
783.211	2.7898
786.103	2.00736
788.996	1.85142
791.889	1.57723
794.781	0.770018
797.674	1.26831
800.567	0.718434
803.459	0.384644
806.352	0.981766
809.245	0.226591
812.138	0.241837
815.03	0.114582
817.923	0.215801
820.816	0.166815
823.708	0.033551
826.601	0.129552
829.494	0.316127
832.386	0.126573
835.279	0.320244
838.172	0.052757
841.065	0.446463
843.957	0.49341
846.85	1.17844
849.743	1.2376
852.635	1.63082
855.528	2.21654
858.421	2.9184
861.313	2.7702
864.206	3.39677
867.099	4.03618
869.992	4.60105
872.884	4.50002
875.777	4.73705
878.67	4.5119
881.562	4.5041
884.455	5.25904
887.348	4.74961
890.24	3.99904
893.133	4.18736
896.026	3.6784
898.919	3.21376
901.811	2.94727
904.704	2.78211
907.597	2.37727
910.489	2.31662
913.382	2.11063
916.275	1.95755
919.168	1.56838
922.06	1.16586
924.953	1.19642
927.846	1.42998
930.738	0.801045
933.631	0.758464
936.524	0.510655
939.416	0.722418
942.309	0.240745
945.202	0.391212
948.095	0.367034
950.987	0.476281
953.88	0.391434
956.773	0.400324
959.665	0.033424
962.558	0.157127
965.451	0.256166
968.343	0.120053
971.236	0.064562
974.129	0.048945
977.021	0.324384
979.914	0.108219
982.807	0.200982
985.7	0.054291
988.592	0.216904
991.485	0.375877
994.378	0.418736
997.27	0.041386
1000.16	0.182375
1003.06	0.456619
1005.95	0.448523
1008.84	0.137756
1011.73	0.059617
1014.63	0.106778
1017.52	0.525904
1020.41	0.157113
1023.3	0.576041
1026.2	0.533168
1029.09	0.18452
1031.98	0.092734
1034.88	0.415304
1037.77	0.507917
1040.66	0.116951
1043.55	0.54005
1046.45	0.066364
1049.34	0.582389
1052.23	0.199784
1055.12	0.19604
1058.02	0.297951
1060.91	0.57327
1063.8	0.119031
1066.69	0.316572
1069.59	0.663565
1072.48	0.017459
1075.37	0.524274
1078.27	0.212992
1081.16	0.602341
1084.05	0.584609
1086.94	0.14105
1089.84	0.016271
1092.73	0.022074
1095.62	0.47465
1098.52	0.049001
1101.41	0.504602
1104.3	0.049344
1107.19	0.023377
1110.09	0.399932
1112.98	0.167476
1115.87	0.235384
1118.76	0.616434
1121.66	0.590618
1124.55	0.125822
1127.44	0.218805
1130.34	0.443616
1133.23	0.00796
1136.12	0.169179
1139.01	0.489914
1141.91	0.138381
1144.8	0.060644
1147.69	0.474488
1150.58	0.203308
1153.48	0.420975
1156.37	0.323254
1159.26	0.413408
1162.15	0.213987
1165.05	0.55243
1167.94	0.367857
1170.83	0.369659
1173.72	0.020875
1176.62	0.552193
1179.51	0.290497
1182.4	0.008174
1185.3	0.029086
1188.19	0.05
1191.08	0.366704
1193.97	0.389924
1196.87	0.02089
1199.76	0.21682
1202.65	0.016488
1205.55	0.27584
1208.44	0.003808
1211.33	0.593605
1214.22	0.035219
1217.12	0.239828
1220.01	0.55043
1222.9	0.502568
1225.79	0.420668
1228.69	0.506005
1231.58	0.013775
1234.47	0.598498
1237.37	0.056478
1240.26	0.242316
1243.15	0.620317
1246.04	0.018148
1248.94	0.680423
1251.83	0.71192
1254.72	0.127243
1257.61	0.132709
1260.51	0.643854
1263.4	0.377702
1266.29	0.495157
1269.18	0.565606
1272.08	0.340271
1274.97	0.156954
1277.86	0.032269
1280.76	0.255877
1283.65	0.620291
