Measurement: Raman, 532 nm, unoriented, Raman Data Processed
Mineral: Schorlomite
Rruff sample: R060349
Ideal chemistry: Ca_3_Ti^4+^_2_(Fe^3+^_2_Si)O_12_
Locality: Sundsvall, Medelpad, Sweden
Source: Marcus Origlieri
Description: Black massive, intimately associated with andradite
Raman shift (cm-1)	intensity
156.094	0
158.986	0.796974
161.879	1.24155
164.772	0.73687
167.664	0.505329
170.557	2.26908
173.45	1.09054
176.343	0.477371
179.235	1.33448
182.128	0.947323
185.021	1.77362
187.913	1.90608
190.806	0.670887
193.699	2.00151
196.591	0.618916
199.484	0.051727
202.377	0.017197
205.269	0.085232
208.162	0.870094
211.055	0.082146
213.948	0.072296
216.84	0.53965
219.733	0.447571
222.626	0.56675
225.518	0.281055
228.411	0.066608
231.304	0.52198
234.196	0.061142
237.089	0.640263
239.982	1.01872
242.875	1.72019
245.767	0.735554
248.66	0.29361
251.553	0.480347
254.445	0.805557
257.338	0.846313
260.231	0.992714
263.123	0.386406
266.016	0.484951
268.909	0.734478
271.802	0.270668
274.694	0.448654
277.587	0.998436
280.48	0.37833
283.372	0.598492
286.265	0.246948
289.158	0.950886
292.05	1.10337
294.943	1.33669
297.836	1.73646
300.729	1.47609
303.621	1.91289
306.514	2.08921
309.407	2.12996
312.299	1.94992
315.192	2.51391
318.085	2.7935
320.978	2.27082
323.87	2.7748
326.763	3.29603
329.656	4.91055
332.548	4.38588
335.441	5.68086
338.334	5.79493
341.226	6.36955
344.119	6.6037
347.012	7.03701
349.904	6.93743
352.797	7.06828
355.69	6.63005
358.583	5.36042
361.475	5.19969
364.368	3.75791
367.261	2.94843
370.153	2.91893
373.046	2.46128
375.939	1.04909
378.832	0.915184
381.724	0.284843
384.617	0.584747
387.51	0.141979
390.402	0.391026
393.295	0.542789
396.188	0.414253
399.08	0.005226
401.973	0.151485
404.866	0.054867
407.759	0.466209
410.651	0.984154
413.544	0.07777
416.437	0.492126
419.329	1.10099
422.222	0.53632
425.115	0.972755
428.007	1.09754
430.9	1.29283
433.793	1.07312
436.685	1.08462
439.578	1.22506
442.471	1.5709
445.364	1.37747
448.256	0.894337
451.149	0.38356
454.042	0.317226
456.934	0.175331
459.827	0.078587
462.72	0.24876
465.613	0.657661
468.505	0.220654
471.398	0.143528
474.291	0.361279
477.183	0.35611
480.076	0.218349
482.969	0.604057
485.861	0.047535
488.754	0.557682
491.647	0.983448
494.539	0.328472
497.432	1.1077
500.325	1.82008
503.218	2.24237
506.11	3.45372
509.003	3.88773
511.896	4.46534
514.788	3.98644
517.681	3.10166
520.574	2.95885
523.466	1.63142
526.359	1.70687
529.252	1.32206
532.145	1.24008
535.037	1.3317
537.93	1.09271
540.823	0.839718
543.715	0.659645
546.608	0.791704
549.501	0.243629
552.394	0.337906
555.286	0.550379
558.179	0.239635
561.072	0.03159
563.964	0.092983
566.857	0.285486
569.75	0.198097
572.642	0.452007
575.535	0.744722
578.428	0.351341
581.321	0.928646
584.213	0.638958
587.106	0.768913
589.999	0.400787
592.891	0.606394
595.784	0.559048
598.677	0.366976
601.569	0.040762
604.462	0.572412
607.355	0.729258
610.247	0.048615
613.14	0.157185
616.033	0.61363
618.926	0.267027
621.818	0.099669
624.711	0.210453
627.604	0.037457
630.496	0.024206
633.389	0.618526
636.282	0.236633
639.174	0.426975
642.067	0.673656
644.96	0.73908
647.852	0.728621
650.745	0.40053
653.638	0.466467
656.531	0.625633
659.423	0.333458
662.316	0.733547
665.209	0.073174
668.101	0.431694
670.994	0.1717
673.887	0.25528
676.779	0.386887
679.672	0.209114
682.565	0.243458
685.458	0.044807
688.35	0.77396
691.243	0.017574
694.136	0.357567
697.028	0.118122
699.921	0.046597
702.814	0.207775
705.707	0.410244
708.599	0.384315
711.492	0.709175
714.385	0.634613
717.277	1.68165
720.17	2.56567
723.063	2.59225
725.955	3.7127
728.848	3.89703
731.741	4.40168
734.634	4.41938
737.526	5.07101
740.419	5.90768
743.312	5.87186
746.204	5.57861
749.097	5.97644
751.99	6.37342
754.882	6.32149
757.775	5.9966
760.668	6.02194
763.561	5.39523
766.453	4.43526
769.346	3.62358
772.239	3.33332
775.131	2.71612
778.024	2.20652
780.917	1.12383
783.809	0.67807
786.702	1.05317
789.595	0.995789
792.487	0.059109
795.38	0.275208
798.273	0.232697
801.166	0.364738
804.058	0.218323
806.951	0.412521
809.844	0.647427
812.736	0.434582
815.629	0.437046
818.522	0.241871
821.415	0.072952
824.307	0.444939
827.2	0.617704
830.093	0.061543
832.985	0.579243
835.878	0.752821
838.771	1.1545
841.663	0.774912
844.556	0.969549
847.449	1.44934
850.342	1.2676
853.234	1.71678
856.127	2.32517
859.02	1.85571
861.912	2.49819
864.805	1.33674
867.698	1.99649
870.591	2.22574
873.483	1.87318
876.376	1.65215
879.269	1.02206
882.161	0.903908
885.054	0.821377
887.947	0.731359
890.839	0.593908
893.732	0.220156
896.625	0.285233
899.518	0.294754
902.41	0.253006
905.303	0.242846
908.196	0.063644
911.088	0.080709
913.981	0.328905
916.874	0.630018
919.766	0.46596
922.659	0.825756
925.552	1.1691
928.444	1.25453
931.337	0.817959
934.23	1.34309
937.123	0.83466
940.015	0.83156
942.908	0.846992
945.801	1.49248
948.693	1.49275
951.586	1.65776
954.479	1.93712
957.371	1.15912
960.264	1.19019
963.157	1.70904
966.05	1.67585
968.942	1.29248
971.835	1.34752
974.728	1.18804
977.62	1.17625
980.513	0.891796
983.406	0.713715
986.298	1.1211
989.191	0.458345
992.084	0.066595
994.977	0.8281
997.869	0.05599
1000.76	0.519712
1003.65	0.709196
1006.55	1.37932
1009.44	0.565821
1012.33	0.72588
1015.23	0.24493
1018.12	0.674341
1021.01	0.276711
1023.9	0.192314
1026.8	0.141035
1029.69	0.126368
1032.58	0.362677
1035.47	0.283014
1038.37	0.714844
1041.26	0.135893
1044.15	0.583082
1047.05	0.703344
1049.94	0.062
1052.83	0.148335
1055.72	0.941422
1058.62	0.7358
1061.51	0.247328
1064.4	0.690147
1067.29	0.251757
1070.19	0.634819
1073.08	0.057295
1075.97	0.344606
1078.87	0.518579
1081.76	0.769426
1084.65	0.242319
1087.54	0.675842
1090.44	0.336025
1093.33	0.473595
1096.22	0.300531
1099.11	0.403646
1102.01	1.12651
1104.9	0.366068
1107.79	0.011553
1110.68	1.04045
1113.58	0.008467
1116.47	0.126051
1119.36	0.097328
1122.26	0.618656
1125.15	0.257492
1128.04	0.572685
1130.93	0.799301
1133.83	0.574081
1136.72	0.45274
1139.61	0.929085
1142.5	0.241215
1145.4	0.364262
1148.29	0.72176
1151.18	0.031342
1154.08	0.548843
1156.97	0.599949
1159.86	0.165783
1162.75	0.668236
1165.65	0.435413
1168.54	0.390961
1171.43	0.061287
1174.32	0.612465
1177.22	0.394043
1180.11	0.389599
1183	0.499516
1185.89	0.134872
1188.79	0.356419
1191.68	0.794853
1194.57	0.284264
1197.47	0.541187
1200.36	0.998367
1203.25	0.52779
1206.14	0.377438
1209.04	0.44323
1211.93	0.367008
1214.82	0.315102
1217.71	0.900433
1220.61	1.04702
1223.5	0.266785
1226.39	0.418594
1229.29	0.265514
1232.18	0.559422
1235.07	0.466766
1237.96	0.510513
1240.86	0.768234
1243.75	0.32272
1246.64	0.30801
1249.53	0.69725
1252.43	0.907082
1255.32	0.205353
1258.21	0.252277
1261.11	0.747192
1264	0.280277
1266.89	0.472923
1269.78	1.40043
1272.68	1.08219
1275.57	0.372952
1278.46	0.134434
1281.35	0.325191
1284.25	1.47429
