Measurement: Raman, 532 nm, unoriented, Raman Data Processed
Mineral: Schoepite
Rruff sample: R080082
Ideal chemistry: (U^6+^O_2_)_4_O(OH)_6_(H_2_O)_6_
Locality: Musonoi Mine, Kolwezi, Western area, Katanga Copper Zone, Katanga (Shaba), Congo (Za√Øre)
Source: Michael Scott
Description: Aggregates of bright yellow micro crystals
Raman shift (cm-1)	intensity
148.761	0
151.654	86.3496
154.547	82.457
157.439	100.471
160.332	79.2441
163.225	147.301
166.117	232.103
169.01	335.81
171.903	297.883
174.796	350.363
177.688	277.869
180.581	260.17
183.474	202.891
186.366	242.963
189.259	188.074
192.152	163.404
195.044	173.69
197.937	82.7324
200.83	82.5273
203.722	67.8144
206.615	4.91406
209.508	65.2344
212.401	32.7266
215.293	74.2676
218.186	122.967
221.079	27.1426
223.971	4.9668
226.864	34.5605
229.757	44.2285
232.649	71.5977
235.542	127.545
238.435	190.547
241.328	241.027
244.22	242.57
247.113	293.785
250.006	343.846
252.898	268.791
255.791	268.836
258.684	244.857
261.577	223.641
264.469	152.041
267.362	181.092
270.255	228.531
273.147	223.631
276.04	249.523
278.933	244.207
281.825	240.981
284.718	152.697
287.611	130.293
290.503	140.111
293.396	109.377
296.289	108.664
299.182	92.4297
302.074	134.387
304.967	193.498
307.86	94.0195
310.752	110.506
313.645	51.7754
316.538	71.9512
319.43	86.6133
322.323	105.449
325.216	85.5039
328.109	84.3633
331.001	119.555
333.894	69.1894
336.787	63.0645
339.679	73.8848
342.572	12.0781
345.465	18.5605
348.358	41.2051
351.25	50.3809
354.143	30.6191
357.036	2.73242
359.928	4.83789
362.821	27.6055
365.714	52.5195
368.606	32.998
371.499	28.5898
374.392	5.03516
377.284	10.1348
380.177	22.1914
383.07	94.6426
385.963	106.008
388.855	136.951
391.748	132.734
394.641	124.334
397.533	102.607
400.426	144.33
403.319	158.588
406.212	172.166
409.104	142.484
411.997	98.9141
414.89	123.443
417.782	134.141
420.675	112.141
423.568	132.316
426.46	67.7344
429.353	72.1856
432.246	53.373
435.139	35.8672
438.031	10.7734
440.924	35.8711
443.817	0.783203
446.709	13.7168
449.602	41.1484
452.495	94.2129
455.387	108.09
458.28	95.1504
461.173	48.2539
464.065	17.8848
466.958	61.9316
469.851	25.1738
472.744	1.16406
475.636	2.63086
478.529	6.98242
481.422	2.24023
484.314	36.834
487.207	29.9434
490.1	4.35938
492.993	8.14258
495.885	11.9355
498.778	46.2422
501.671	46.5762
504.563	54.0703
507.456	44.8848
510.349	9.57227
513.241	51.5605
516.134	25.8984
519.027	57.2754
521.919	64.1465
524.812	82.7734
527.705	64.5
530.598	101.949
533.49	129.356
536.383	146.039
539.276	117.467
542.168	127.805
545.061	155.459
547.954	146.603
550.846	136.326
553.739	111.682
556.632	121.402
559.525	108.166
562.417	71.1055
565.31	37.0859
568.203	7.5
571.095	21.0215
573.988	1.25195
576.881	24.6992
579.774	36.0195
582.666	101.012
585.559	74.0312
588.452	31.3418
591.344	41.2148
594.237	83.5938
597.13	87.6543
600.022	44.6445
602.915	48.3125
605.808	67.3438
608.701	64.8144
611.593	73.5449
614.486	87.7188
617.379	75.3555
620.271	41.4453
623.164	13.5059
626.057	21.3828
628.949	48.6465
631.842	52.0332
634.735	11.959
637.628	31.166
640.52	26.5703
643.413	1.73633
646.306	10.0957
649.198	3.84766
652.091	8.44141
654.984	32.7041
657.876	39.915
660.769	78.9424
663.662	106.239
666.554	88.0391
669.447	36.6787
672.34	86.1455
675.233	61.3086
678.125	79.7188
681.018	51.2695
683.911	79.6348
686.803	38.0947
689.696	21.0234
692.589	33.6035
695.481	45.1973
698.374	48.8652
701.267	80.1035
704.16	64.6016
707.052	33.7822
709.945	34.9951
712.838	53.9512
715.73	57.4873
718.623	46.2666
721.516	22.6348
724.409	41.084
727.301	45.9717
730.194	74.9111
733.087	18.498
735.979	24.1602
738.872	9.08203
741.765	54.0957
744.657	20.6016
747.55	9.40332
750.443	8.72559
753.336	9.24805
756.228	17.3975
759.121	12.0352
762.014	14.456
764.906	36.7353
767.799	34.3955
770.692	18.9805
773.584	8.87891
776.477	11.2568
779.37	18.0479
782.263	18.2197
785.155	71.8418
788.048	96.2266
790.941	92.7481
793.833	129.763
796.726	146.078
799.619	122.526
802.511	200.202
805.404	189.919
808.297	249.699
811.189	266.383
814.082	290.704
816.975	338.234
819.868	367.084
822.76	466.412
825.653	521.496
828.546	554.192
831.438	635.431
834.331	780.229
837.224	918.315
840.116	984.567
843.009	950.565
845.902	717.975
848.795	620.548
851.687	675.498
854.58	734.144
857.473	610.003
860.365	333.411
863.258	175.196
866.151	100.594
869.043	76.8984
871.936	102.721
874.829	62.6963
877.722	40.5977
880.614	61.5381
883.507	97.6699
886.4	168.308
889.292	78.8965
892.185	25.2236
895.078	16.6582
897.971	0.821289
900.863	9.93652
903.756	30.2939
906.649	30.5684
909.541	7.12793
912.434	2.82031
915.327	2.79297
918.219	28.1885
921.112	16.1357
924.005	16.8311
926.898	42.5049
929.79	41.2676
932.683	51.001
935.576	34.5947
938.468	9.4873
941.361	1.69141
944.254	16.1289
947.146	13.2852
950.039	15.5645
952.932	31.2432
955.824	42.4658
958.717	26.8018
961.61	7.26856
964.503	0.794922
967.395	2.34766
970.288	41.4844
973.181	57.8516
976.073	52.1963
978.966	45.0127
981.859	45.6435
984.751	51.5498
987.644	55.4678
990.537	47.1533
993.43	67.5371
996.322	30.6074
999.215	1.31543
1002.11	17.7334
1005	15.4727
1007.89	7.49805
1010.79	36.0879
1013.68	46.8682
1016.57	32.7373
1019.46	45.6982
1022.36	34.2334
1025.25	27.3809
1028.14	25.6729
1031.04	32.4522
1033.93	3.50586
1036.82	58.2617
1039.71	34.8467
1042.61	24.4102
1045.5	43.9932
1048.39	30.8193
1051.28	17.9141
1054.18	27.4219
1057.07	66.2959
1059.96	38.4697
1062.85	17.54
1065.75	60.0185
1068.64	23.1035
1071.53	7.38574
1074.42	32.6797
1077.32	24.3525
1080.21	31.9258
1083.1	17.1426
1086	32.1152
1088.89	4.78613
1091.78	3.24316
1094.67	26.0957
1097.57	3.01269
1100.46	34.6299
1103.35	22.0986
1106.24	15.4062
1109.14	1.30762
1112.03	17.7041
1114.92	37.5
1117.82	40.9043
1120.71	35.5918
1123.6	10.793
1126.49	2.70019
1129.39	41.5449
1132.28	38.8213
1135.17	46.3643
1138.07	43.626
1140.96	47.0322
1143.85	52.7353
1146.74	23.9053
1149.63	20.8135
1152.53	1.1416
1155.42	0.658203
1158.31	10.791
1161.21	47.9766
1164.1	43.7383
1166.99	53.0185
1169.88	39.8389
1172.78	48.252
1175.67	41.876
1178.56	44.6963
1181.45	27.3975
1184.35	39.2744
1187.24	38.6641
1190.13	49.9434
1193.03	46.7007
1195.92	49.9912
1198.81	29.5039
1201.7	30.1352
1204.6	21.8276
1207.49	50.0845
1210.38	31.2383
1213.28	33.585
1216.17	58.73
1219.06	47.8374
1221.95	29.9043
1224.85	9.42188
1227.74	32.8852
1230.63	9.56885
1233.52	47.3037
1236.42	35.1528
1239.31	15.1509
1242.2	9.30957
1245.09	4.61865
1247.99	35.1431
1250.88	46.1831
1253.77	33.8648
1256.66	22.1064
1259.56	24.7773
1262.45	30.5352
1265.34	29.1631
1268.24	27.8227
1271.13	34.4844
1274.02	15.1733
1276.91	2.41553
1279.81	32.4497
1282.7	15.9414
1285.59	39.4541
1288.48	35.7368
1291.38	27.7798
1294.27	3.95166
1297.16	10.7744
1300.06	11.0361
1302.95	3.11182
