Measurement: Raman, 532 nm, unoriented, Raman Data Processed
Mineral: Schoepite
Rruff sample: R100188
Ideal chemistry: (U^6+^O_2_)_4_O(OH)_6_(H_2_O)_6_
Locality: Shinkolobwe mine, Katanga, Congo
Source: William W Pinch
Description: Lemon-yellow tabular to blocky crystals associated with orange-yellow fourmarierite (R100187) and soddyite
Raman shift (cm-1)	intensity
297.381	0.094727
300.274	4.35938
303.167	12.4541
306.059	9.9502
308.952	52.6748
311.845	32.8975
314.738	53.9844
317.63	84.4062
320.523	82.6836
323.416	61.0967
326.308	85.832
329.201	92.7422
332.094	86.0723
334.986	66.9561
337.879	59.4853
340.772	43.9531
343.665	36.2998
346.557	22.4678
349.45	45.6572
352.343	45.8623
355.235	54.1562
358.128	19.7705
361.021	14.7842
363.913	15.7549
366.806	16.7842
369.699	13.4844
372.592	5.30176
375.484	6.69629
378.377	44.1562
381.27	17.0625
384.162	4.05371
387.055	19.0635
389.948	17.4502
392.841	32.5684
395.733	38.5098
398.626	60.6123
401.519	61.7246
404.411	76.4707
407.304	62.0147
410.197	6.38379
413.089	3.34375
415.982	14.7568
418.875	8.875
421.767	30.7734
424.66	53.0869
427.553	17.6436
430.446	44.3174
433.338	51.4023
436.231	69.2812
439.124	77.5332
442.017	80.8418
444.909	62.9434
447.802	59.6885
450.695	77.0029
453.587	56.5107
456.48	31.7119
459.373	40.585
462.265	28.4375
465.158	28.7715
468.051	35.5684
470.943	46.9443
473.836	35.794
476.729	29.7607
479.622	29.0225
482.514	10.0684
485.407	6.33594
488.3	4.58301
491.192	31.6572
494.085	22.4697
496.978	43.833
499.87	34.4004
502.763	28.9814
505.656	13.1768
508.549	5.35352
511.441	29.9482
514.334	35.4424
517.227	60.1768
520.119	29.2178
523.012	63.1435
525.905	47.3174
528.798	64.8232
531.69	87.5234
534.583	71.3711
537.476	84.7939
540.368	97.9795
543.261	85.6338
546.154	77.1602
549.047	79.0156
551.939	89.04
554.832	75.4531
557.725	62.377
560.617	31.75
563.51	52.6602
566.403	47.2803
569.295	69.7178
572.188	32.6826
575.081	36.7861
577.973	17.6318
580.866	8.4375
583.759	4.3125
586.652	41.5625
589.544	44.4531
592.437	26.125
595.33	13.2324
598.222	3.45508
601.115	28.7988
604.008	2.14258
606.901	17.8701
609.793	7.01758
612.686	27.5127
615.579	19.0254
618.471	7.36621
621.364	3.61426
624.257	9.06348
627.149	6.60644
630.042	9.72168
632.935	19.9717
635.828	22.9883
638.72	47.4522
641.613	66.8769
644.506	83.125
647.398	55.1592
650.291	19.2109
653.184	23.9795
656.077	49.9629
658.969	76.6367
661.862	89.8721
664.755	53.9609
667.647	37.8096
670.54	36.5889
673.433	42.9815
676.325	35.0772
679.218	44.4404
682.111	74.5742
685.004	68.9629
687.896	86.832
690.789	84.5635
693.682	57.9121
696.574	47.8242
699.467	41.6728
702.36	67.6377
705.253	62.0039
708.145	65.4951
711.038	66.9482
713.931	70.0283
716.823	66.585
719.716	26.0391
722.609	9.99512
725.501	1.34766
728.394	26.9951
731.287	2.72363
734.179	11.1133
737.072	14.0703
739.965	29.5059
742.858	2.53223
745.75	0.969727
748.643	18.4092
751.536	1.58691
754.428	8.20996
757.321	7.13867
760.214	14.7354
763.107	16.6094
765.999	25.249
768.892	54.8227
771.785	29.1816
774.677	29.3223
777.57	54.3242
780.463	39.7305
783.356	85.4844
786.248	104.262
789.141	97.6045
792.034	125.827
794.926	135.176
797.819	137.128
800.712	175.019
803.604	171.848
806.497	173.811
809.39	176.115
812.283	178.737
815.175	214.2
818.068	240.088
820.961	324.822
823.853	380.973
826.746	441.57
829.639	512.449
832.531	524.312
835.424	466.842
838.317	344.791
841.21	252.074
844.102	171.928
846.995	132.922
849.888	122.258
852.78	174.961
855.673	192.622
858.566	193.863
861.458	97.6377
864.351	50.707
867.244	50.4175
870.136	37.9424
873.029	23.9814
875.922	8.87598
878.815	12.7847
881.707	24.8882
884.6	7.60547
887.493	5.28613
890.385	2.09082
893.278	9.91357
896.171	6.29639
899.064	4.91309
901.956	1.25342
904.849	15.0361
907.742	12.2695
910.634	12.0928
913.527	13.3428
916.42	7.1665
919.312	18.3105
922.205	4.82861
925.098	27.7656
927.991	26.9751
930.883	24.0112
933.776	30.6035
936.669	33.9116
939.562	27.0781
942.454	4.35303
945.347	12.3296
948.24	2.12695
951.132	5.46631
954.025	9.13135
956.918	9.59277
959.81	0.714844
962.703	14.7363
965.596	20.0181
968.489	28.793
971.381	6.41016
974.274	20.481
977.167	18.8105
980.059	15.0342
982.952	19.0845
985.845	13.8613
988.737	7.95898
991.63	12.081
994.523	12.4482
997.415	14.9375
1000.31	14.9624
1003.2	21.874
1006.09	11.4805
1008.99	7.31689
1011.88	27.7075
1014.77	24.7178
1017.66	16.8213
1020.56	8.40234
1023.45	4.48291
1026.34	0.228516
1029.23	30.6685
1032.13	9.35596
1035.02	21.9795
1037.91	34.043
1040.81	14.8135
1043.7	3.29785
1046.59	19.9624
1049.48	15.7861
1052.38	9.46289
1055.27	2.89453
1058.16	24.8296
1061.06	10.0908
1063.95	12.417
1066.84	8.19043
1069.73	17.1377
1072.63	31.3296
1075.52	19.1582
1078.41	12.1509
1081.3	19.2793
1084.2	22.2456
1087.09	15.1235
1089.98	5.35205
1092.88	9.81543
1095.77	2.59961
1098.66	0.891602
1101.55	21.606
1104.45	20.5825
1107.34	17.7617
1110.23	17.5571
1113.12	29.2646
1116.02	17.291
1118.91	23.6108
1121.8	22.6655
1124.69	25.8335
1127.59	11.4404
1130.48	26.4043
1133.37	8.95703
1136.27	17.5693
1139.16	5.66162
1142.05	8.1084
1144.94	34.5317
1147.84	12.6431
1150.73	9.54492
1153.62	17.25
1156.51	2.62158
1159.41	10.8652
1162.3	17.6514
1165.19	20.9248
1168.09	5.40283
1170.98	12.9604
1173.87	13.4604
1176.76	20.769
1179.66	8.73584
1182.55	9.87549
1185.44	16.7554
1188.33	23.5146
1191.23	18.4551
1194.12	12.1777
1197.01	17.352
1199.9	23.2124
1202.8	6.5
1205.69	11.8721
1208.58	21.7358
1211.48	21.4761
1214.37	32.1089
1217.26	20.5591
1220.15	11.1665
1223.05	14.52
1225.94	26.3027
1228.83	10.2134
1231.72	12.6924
1234.62	4.13037
1237.51	1.61816
1240.4	1.02295
1243.3	10.499
1246.19	8.33496
1249.08	20.3369
1251.97	15.4629
1254.87	6.95142
1257.76	11.2854
1260.65	25.9844
1263.54	36.2034
1266.44	16.7209
1269.33	21.2664
1272.22	25.2952
1275.12	17.4976
1278.01	13.0032
1280.9	8.35205
1283.79	0.270996
1286.69	3.89356
1289.58	10.3994
1292.47	11.4409
1295.36	18.6421
1298.26	13.9665
1301.15	8.50781
