Measurement: Raman, 532 nm, unoriented, Raman Data Processed
Mineral: Schuetteite
Rruff sample: R080079
Ideal chemistry: Hg^2+^_3_O_2_(S^6+^O_4_)
Locality: Oceanic mine, Adelaida District, San Luis Obispo County, California, USA
Source: Michael Scott
Description: Bright yellow earthy druse associated with earthy red cinnabar
Raman shift (cm-1)	intensity
153.582	0
156.475	21.4365
159.368	0.674805
162.26	27.6582
165.153	129.075
168.046	206.747
170.939	230.004
173.831	227.134
176.724	236.889
179.617	313.586
182.509	339.938
185.402	507.957
188.295	609.313
191.187	719.928
194.08	861.776
196.973	1025.89
199.865	1177.1
202.758	1313.95
205.651	1462.67
208.544	1554.1
211.436	1709.65
214.329	1740.84
217.222	1773.2
220.114	1666.94
223.007	1465.65
225.9	1243.96
228.792	1008.43
231.685	815.08
234.578	561.901
237.471	483.406
240.363	356.29
243.256	298.338
246.149	161.899
249.041	130.451
251.934	128.917
254.827	114.092
257.719	66.2422
260.612	26.5928
263.505	8.4834
266.398	20.3633
269.29	27.418
272.183	10.3105
275.076	48.7256
277.968	70.2705
280.861	15.7217
283.754	65.5986
286.647	0.861328
289.539	43.9404
292.432	47.208
295.325	71.7539
298.217	0.112305
301.11	41.4375
304.003	81.5283
306.895	116.089
309.788	92.3887
312.681	41.4238
315.574	91.7822
318.466	83.5088
321.359	79.0371
324.252	88.7109
327.144	31.7549
330.037	38.7617
332.93	77.7861
335.822	40.6377
338.715	2.40527
341.608	35.8457
344.5	24.5664
347.393	13.1328
350.286	23.8916
353.179	82.3027
356.071	9.82422
358.964	8.46582
361.857	37.9385
364.75	13.1182
367.642	42.8281
370.535	32.0547
373.428	1.72168
376.32	35.0478
379.213	13.2646
382.106	34.4961
384.998	52.2783
387.891	33.0117
390.784	43.2852
393.676	0.014648
396.569	7.03613
399.462	76.2627
402.355	103.136
405.247	76.2822
408.14	164.734
411.033	123.454
413.925	223.2
416.818	309.803
419.711	365.209
422.603	347.611
425.496	234.74
428.389	121.365
431.282	131.279
434.174	88.9258
437.067	110.922
439.96	55.3145
442.852	85.4941
445.745	114.215
448.638	229.734
451.531	201.272
454.423	211.629
457.316	148.988
460.209	72.9238
463.101	31.7148
465.994	82.6074
468.887	64.3027
471.779	108.629
474.672	112.219
477.565	147.877
480.457	257.658
483.35	226.637
486.243	292.744
489.136	269.211
492.028	368.547
494.921	324.535
497.814	317.949
500.706	276.693
503.599	204.144
506.492	220.307
509.385	175.482
512.277	141.685
515.17	138.086
518.063	153.58
520.955	72.1328
523.848	38.2168
526.741	27.7852
529.633	2.27539
532.526	2.69727
535.419	48.8086
538.312	2.28711
541.204	27.5547
544.097	58.377
546.99	6.64648
549.882	33.6172
552.775	52.0371
555.668	19.8926
558.56	1.0957
561.453	19.9824
564.346	21.6328
567.239	19.4434
570.131	30.6504
573.024	24.6973
575.917	29.6387
578.809	67.0469
581.702	88.4668
584.595	51.2422
587.487	3.08203
590.38	55.4316
593.273	84.7305
596.165	159.738
599.058	161.803
601.951	164.816
604.844	154.51
607.736	190.422
610.629	147.539
613.522	164.076
616.414	229.367
619.307	242.934
622.2	229.592
625.092	261.815
627.985	307.572
630.878	342.639
633.771	265.084
636.663	143.57
639.556	100.328
642.449	49.1484
645.341	74.8301
648.234	19.1934
651.127	9.85742
654.019	26.5488
656.912	72.1289
659.805	118.625
662.698	217.027
665.59	197.625
668.483	149.461
671.376	198.982
674.268	155.068
677.161	150.465
680.054	74.8965
682.947	34.6562
685.839	36.6348
688.732	16.7812
691.625	43.8594
694.517	38.8145
697.41	35.2949
700.303	56.0898
703.195	90.3516
706.088	50.8301
708.981	4.28711
711.874	33.8496
714.766	59.9727
717.659	9.12305
720.552	36.8848
723.444	10.1426
726.337	36
729.23	75.4766
732.122	48.0957
735.015	40.6973
737.908	31.1016
740.801	40.9414
743.693	43.834
746.586	37.6934
749.479	21.584
752.371	12.1992
755.264	34.2617
758.157	18.4746
761.049	20.5605
763.942	82.2168
766.835	49.8379
769.727	32.416
772.62	36.8574
775.513	46.9922
778.406	21.2305
781.298	25.7324
784.191	42.5723
787.084	14.2402
789.976	96.6836
792.869	57.7246
795.762	63.9609
798.654	25.0977
801.547	51.1621
804.44	75.0742
807.333	79.4609
810.225	74.1504
813.118	44.6953
816.011	23.7617
818.903	35.3594
821.796	59.373
824.689	67.2188
827.582	12.9746
830.474	21.3828
833.367	39.1074
836.26	47.0898
839.152	37.6777
842.045	44.1992
844.938	44.7109
847.83	38.7168
850.723	73.9375
853.616	38.0117
856.509	79.5664
859.401	19.543
862.294	19.832
865.187	23.3301
868.079	89.0566
870.972	81.5664
873.865	46.4023
876.757	13.7969
879.65	54.3105
882.543	76.6953
885.436	69.1562
888.328	99.1035
891.221	113.488
894.114	55.8652
897.006	101.369
899.899	25.334
902.792	28.9297
905.684	69.4824
908.577	20.2402
911.47	51.0918
914.362	3.02734
917.255	20.2539
920.148	74.5
923.041	56.5488
925.933	87.7168
928.826	77.9609
931.719	44.9395
934.611	6.69727
937.504	17.8145
940.397	29.5117
943.289	4.18555
946.182	25.625
949.075	37.6953
951.968	44.1406
954.86	114.318
957.753	169.231
960.646	213.19
963.538	344.982
966.431	537.543
969.324	702.996
972.216	952.322
975.109	929.92
978.002	660.377
980.895	414.576
983.787	216.943
986.68	229.125
989.573	174.217
992.465	170.981
995.358	187.709
998.251	185.475
1001.14	201.889
1004.04	343.297
1006.93	469.992
1009.82	622.039
1012.71	900.691
1015.61	988.725
1018.5	1001.98
1021.39	1000.89
1024.29	1017.64
1027.18	757.863
1030.07	504.562
1032.96	221.66
1035.86	117.268
1038.75	96.5156
1041.64	34.0469
1044.53	49.2793
1047.43	7.0918
1050.32	5.69727
1053.21	6.9375
1056.11	85.3262
1059	122.164
1061.89	73.1152
1064.78	129.279
1067.68	58.7461
1070.57	46.207
1073.46	37.3555
1076.35	71.4297
1079.25	148.586
1082.14	107.227
1085.03	38.9492
1087.92	106.914
1090.82	1.69531
1093.71	5.12695
1096.6	24.5488
1099.49	36.3262
1102.39	92.0059
1105.28	3.01562
1108.17	56.7793
1111.07	20.166
1113.96	21.043
1116.85	11.6582
1119.74	34.5176
1122.64	74.8027
1125.53	17.1934
1128.42	83.3438
1131.32	110.734
1134.21	136.883
1137.1	151.853
1139.99	152.357
1142.89	124.525
1145.78	125.164
1148.67	95.7519
1151.56	26.8574
1154.46	72.3867
1157.35	100.281
1160.24	72.457
1163.13	83.2715
1166.03	153.629
1168.92	88.0508
1171.81	73.7285
1174.71	73.5312
1177.6	62.7227
1180.49	33.3496
1183.38	54.9492
1186.28	35.834
1189.17	98.2285
1192.06	59.7168
1194.95	68.1894
1197.85	53.5918
1200.74	23.6055
1203.63	27.9492
1206.53	53.5508
1209.42	40.541
1212.31	79.1387
1215.2	58.2871
1218.1	31.0645
1220.99	56.9902
1223.88	108.926
1226.77	63.7266
1229.67	102.787
1232.56	114.598
1235.45	83.6055
1238.35	23.5547
1241.24	15.3008
1244.13	14.2734
1247.02	23.8105
1249.92	84.5566
1252.81	97.7012
1255.7	38.7598
1258.59	11.3086
1261.49	62.4062
1264.38	116.268
1267.27	5.73828
1270.16	84.6074
1273.06	80.2051
1275.95	61.6602
1278.84	33.1641
1281.73	51.3086
1284.63	74.166
1287.52	89.0078
1290.41	108.766
1293.31	17.0332
1296.2	29.8125
1299.09	49.0605
1301.98	19.541
