Measurement: Raman, 785 nm, unoriented, Raman Data Processed
Mineral: Schulenbergite
Rruff sample: R060992
Ideal chemistry: (Cu^2+^,Zn^2+^)_7_(S^6+^O_4_)_2_(OH)_10_3H_2_O
Locality: Platosa mine, Bermejillo, Mapimi Municipality, Mexico
Source: Peter Megaw
Description: Coating of blue-green thin, tabular hexagonal crystals associated with gypsum, linarite, and serpierite
Raman shift (cm-1)	intensity
123.457	0
126.349	37.6968
129.242	156.174
132.135	423.724
135.027	440.041
137.92	363.409
140.813	278.972
143.705	301.592
146.598	412.385
149.491	582.454
152.383	589.756
155.276	507.72
158.169	411.589
161.062	409.125
163.954	304.225
166.847	208.217
169.74	206.203
172.632	153.976
175.525	124.064
178.418	77.4448
181.31	43.4
184.203	41.661
187.096	12.6475
189.989	11.1567
192.881	25.0362
195.774	5.07867
198.667	0.875061
201.559	2.76892
204.452	12.958
207.345	4.40338
210.238	23.957
213.13	0.18219
216.023	22.8925
218.916	10.5588
221.808	11.9953
224.701	8.25201
227.594	21.2932
230.486	27.2305
233.379	33.0031
236.272	26.702
239.164	43.1394
242.057	37.5841
244.95	40.5247
247.843	39.9438
250.735	23.1676
253.628	42.0325
256.521	49.2385
259.413	18.9163
262.306	24.8229
265.199	4.84293
268.091	10.8089
270.984	23.1813
273.877	18.1681
276.769	0.658722
279.662	15.1446
282.555	6.93268
285.448	13.1991
288.34	0.533173
291.233	4.16757
294.126	7.14261
297.018	17.3149
299.911	20.8548
302.804	48.7089
305.697	31.7008
308.589	48.0583
311.482	14.2615
314.375	36.7966
317.267	22.1985
320.16	3.42017
323.053	23.5391
325.945	20.692
328.838	22.5488
331.731	20.0422
334.623	24.1932
337.516	25.3701
340.409	15.4215
343.302	15.2986
346.194	12.1847
349.087	16.554
351.98	1.24075
354.872	2.98273
357.765	8.67462
360.658	7.26407
363.55	8.90536
366.443	4.41641
369.336	24.4453
372.229	29.0402
375.121	23.6208
378.014	20.5172
380.907	52.3108
383.799	54.1219
386.692	65.8416
389.585	54.3056
392.477	48.0481
395.37	53.5717
398.263	58.1492
401.156	48.3242
404.048	21.4411
406.941	8.27582
409.834	18.4271
412.726	26.621
415.619	26.4711
418.512	8.54065
421.404	24.1115
424.297	29.3943
427.19	30.2672
430.082	45.7251
432.975	52.3351
435.868	64.9857
438.761	69.6188
441.653	57.6281
444.546	80.6899
447.439	87.1736
450.331	92.9253
453.224	86.0479
456.117	80.1354
459.01	100.757
461.902	72.8028
464.795	46.593
467.688	61.6269
470.58	50.7951
473.473	36.5404
476.366	28.2007
479.258	33.4753
482.151	21.6556
485.044	25.6675
487.937	19.9322
490.829	28.4413
493.722	24.0133
496.615	24.9748
499.507	17.28
502.4	12.2126
505.293	3.12085
508.185	2.28616
511.078	9.40366
513.971	7.86456
516.864	27.8534
519.756	19.4452
522.649	24.3988
525.542	6.1969
528.434	4.48917
531.327	3.35492
534.22	7.159
537.112	0.172607
540.005	0.654419
542.898	11.2669
545.79	4.48035
548.683	4.7778
551.576	3.44861
554.469	2.17715
557.361	21.8304
560.254	2.83026
563.147	14.4168
566.039	4.57898
568.932	4.03723
571.825	14.399
574.717	1.94821
577.61	35.4282
580.503	39.8876
583.395	26.9992
586.288	33.0284
589.181	58.0767
592.074	54.178
594.966	60.8266
597.859	91.1919
600.752	109.637
603.644	109.429
606.537	119.176
609.43	125.364
612.322	106.408
615.215	93.7816
618.108	89.9706
621.001	82.6148
623.893	59.6844
626.786	66.5262
629.679	58.0887
632.571	51.0465
635.464	35.1665
638.357	35.3204
641.25	25.4834
644.142	15.996
647.035	9.48544
649.928	8.15588
652.82	8.79468
655.713	13.2342
658.606	29.7321
661.498	16.0468
664.391	4.50989
667.284	10.5844
670.177	12.5824
673.069	13.7683
675.962	13.525
678.855	28.3357
681.747	1.22491
684.64	5.91055
687.533	24.1687
690.425	6.99445
693.318	25.398
696.211	30.4856
699.104	15.3434
701.996	1.06732
704.889	13.6088
707.782	7.2934
710.674	19.7242
713.567	17.9311
716.46	5.08618
719.352	28.8669
722.245	23.628
725.138	24.3991
728.03	21.7822
730.923	35.1266
733.816	43.3949
736.709	57.6986
739.601	19.4478
742.494	12.2127
745.387	20.3672
748.279	37.5319
751.172	20.4306
754.065	29.5232
756.957	38.608
759.85	30.7297
762.743	24.7657
765.635	12.7235
768.528	11.3102
771.421	26.4171
774.314	31.8101
777.206	18.014
780.099	27.3924
782.992	24.0528
785.884	15.689
788.777	36.007
791.67	26.8727
794.562	3.60425
797.455	29.6607
800.348	17.7179
803.241	2.58518
806.133	3.99176
809.026	36.7818
811.919	21.3856
814.811	40.8599
817.704	45.0248
820.597	24.1973
823.49	9.64325
826.382	20.7626
829.275	26.4206
832.168	23.5687
835.06	15.3995
837.953	21.6894
840.846	13.6727
843.738	23.079
846.631	18.0058
849.524	5.61655
852.416	18.5997
855.309	30.3828
858.202	24.0226
861.095	14.8302
863.987	10.3489
866.88	1.83643
869.773	30.0005
872.665	11.9149
875.558	11.7565
878.451	30.5169
881.343	8.14874
884.236	0.767944
887.129	15.2367
890.021	1.06271
892.914	10.517
895.807	11.5827
898.7	14.7618
901.592	6.25275
904.485	10.2335
907.378	12.8893
910.27	4.57989
913.163	14.9026
916.056	17.2585
918.948	11.0364
921.841	13.5896
924.734	8.53165
927.627	10.7827
930.519	17.3656
933.412	15.369
936.305	1.53656
939.197	29.2476
942.09	34.133
944.983	25.3336
947.875	29.5435
950.768	45.8833
953.661	60.5055
956.554	103.519
959.446	137.143
962.339	180.036
965.232	261.011
968.124	300.002
971.017	341.169
973.91	296.627
976.803	241.18
979.695	240.122
982.588	203.436
985.481	233.3
988.373	194.534
991.266	190.342
994.159	144.179
997.051	122.418
999.944	75.91
1002.84	66.7046
1005.73	58.3596
1008.62	21.3532
1011.51	34.9186
1014.41	36.8932
1017.3	34.0243
1020.19	3.20587
1023.09	9.76245
1025.98	10.6268
1028.87	11.3501
1031.76	7.39951
1034.66	13.1681
1037.55	18.1278
1040.44	14.775
1043.34	12.9807
1046.23	6.92722
1049.12	6.89227
1052.01	12.8673
1054.9	27.1617
1057.8	27.8245
1060.69	25.6815
1063.58	3.10123
1066.48	21.3714
1069.37	18.1378
1072.26	14.7653
1075.15	7.11108
1078.05	7.25256
1080.94	30.6607
1083.83	2.53799
1086.72	20.2527
1089.62	52.7941
1092.51	37.3885
1095.4	51.1775
1098.3	44.6112
1101.19	28.6441
1104.08	35.0397
1106.97	34.6167
1109.87	20.1496
1112.76	49.9796
1115.65	11.6248
1118.55	39.8338
1121.44	38.634
1124.33	17.0854
1127.22	35.6936
1130.12	20.8567
1133.01	28.6817
1135.9	48.348
1138.79	26.3575
1141.69	16.0558
1144.58	30.4623
1147.47	18.7114
1150.36	13.2188
1153.26	19.1577
1156.15	5.06119
1159.04	24.7755
1161.93	4.43835
1164.83	35.1048
1167.72	28.0862
1170.61	12.6761
1173.51	16.1181
1176.4	11.583
1179.29	10.6722
1182.18	9.51352
1185.08	22.1817
1187.97	1.42343
1190.86	17.5812
1193.76	8.02866
1196.65	23.0892
1199.54	18.8488
1202.43	10.1573
1205.33	6.08679
1208.22	8.98724
1211.11	27.0411
1214	16.1394
1216.9	13.7235
1219.79	35.5425
1222.68	17.4287
1225.58	44.9662
1228.47	18.7211
1231.36	28.75
1234.25	26.9973
1237.14	3.08826
1240.04	17.699
1242.93	21.2809
1245.82	4.85806
1248.72	17.8007
