Measurement: Raman, 780 nm, unoriented, Raman Data Processed
Mineral: Scottyite
Rruff sample: R160006
Ideal chemistry: BaCu^2+^_2_Si_2_O_7_
Locality: Graulay Quarry, Eifel, Germany
Source: Bill Pinch
Description: Aggregates of granular crystals, associated with calcite and grey elongated tabular hedenbergite
Raman shift (cm-1)	intensity
158.936	0
161.828	12.7491
164.721	0.230835
167.614	3.84241
170.506	21.5513
173.399	13.0388
176.292	8.55072
179.185	11.4858
182.077	8.77368
184.97	14.6742
187.863	15.7624
190.755	21.3395
193.648	14.897
196.541	13.6109
199.433	10.7232
202.326	12.8104
205.219	4.97266
208.112	6.13568
211.004	3.50793
213.897	2.21374
216.79	3.57947
219.682	0.912476
222.575	0.154602
225.468	2.64551
228.36	0.898071
231.253	0.162659
234.146	1.21094
237.038	4.04492
239.931	7.47797
242.824	8.45923
245.717	8.98407
248.609	6.92261
251.502	6.92877
254.395	3.7948
257.287	8.11792
260.18	6.17523
263.073	9.56915
265.966	10.9266
268.858	15.8726
271.751	12.4462
274.644	19.9838
277.536	15.7443
280.429	12.9183
283.322	6.50421
286.214	0.848633
289.107	3.3277
292	1.03095
294.892	6.15497
297.785	17.2074
300.678	39.2471
303.571	44.6606
306.463	47.3912
309.356	58.2532
312.249	72.0496
315.141	72.1837
318.034	57.9228
320.927	50.0239
323.82	43.3421
326.712	45.9026
329.605	43.3951
332.498	43.7163
335.39	43.6465
338.283	45.152
341.176	48.0487
344.068	54.2759
346.961	65.229
349.854	67.5785
352.747	86.6629
355.639	90.6403
358.532	92.2426
361.425	89.611
364.317	79.7087
367.21	67.2536
370.103	57.3312
372.995	42.7516
375.888	27.0421
378.781	20.9523
381.674	10.4253
384.566	6.68121
387.459	2.28015
390.352	0.736206
393.244	3.00885
396.137	6.19061
399.03	5.80225
401.923	12.0085
404.815	16.4673
407.708	27.3279
410.601	35.7796
413.493	43.7355
416.386	52.8915
419.279	58.4409
422.171	62.4396
425.064	61.6461
427.957	54.9011
430.849	41.6045
433.742	33.6524
436.635	22.3493
439.528	13.28
442.42	1.15863
445.313	2.14783
448.206	2.23859
451.098	2.49725
453.991	11.4219
456.884	34.3341
459.776	39.7286
462.669	13.7624
465.562	1.867
468.455	2.51245
471.347	1.37878
474.24	4.38031
477.133	14.9289
480.025	19.2325
482.918	28.1092
485.811	32.2237
488.704	37.6315
491.596	43.8219
494.489	48.2529
497.382	49.7817
500.274	53.7419
503.167	59.0989
506.06	59.0741
508.952	64.463
511.845	59.4448
514.738	54.9751
517.63	49.7243
520.523	45.8702
523.416	34.2689
526.308	29.1135
529.201	20.4945
532.094	11.6113
534.987	8.45477
537.879	0.29718
540.772	1.25037
543.665	0.800659
546.557	4.29376
549.45	13.8063
552.343	29.3926
555.236	46.3249
558.128	69.0673
561.021	76.8642
563.914	68.4003
566.806	63.8833
569.699	51.8704
572.592	53.2032
575.484	46.5055
578.377	42.5212
581.27	36.9755
584.163	30.4599
587.055	24.9146
589.948	21.7436
592.841	18.3645
595.733	16.6497
598.626	17.9032
601.519	15.4639
604.412	12.9304
607.304	9.94745
610.197	5.58984
613.09	5.20581
615.982	1.97083
618.875	0.199677
621.768	0.902344
624.66	0.778473
627.553	0.64856
630.446	0.349182
633.338	2.77777
636.231	1.17615
639.124	1.12308
642.017	0.915405
644.909	2.70154
647.802	1.85648
650.695	5.41113
653.587	4.32837
656.48	7.43408
659.373	8.10843
662.265	13.808
665.158	24.9657
668.051	31.5903
670.944	47.1628
673.836	57.8232
676.729	51.8997
679.622	33.5565
682.514	20.3679
685.407	13.4429
688.3	7.37836
691.192	9.16275
694.085	8.50247
696.978	6.33932
699.871	4.02445
702.763	5.3038
705.656	4.31525
708.549	5.33987
711.441	7.07639
714.334	4.89169
717.227	5.92246
720.12	5.03879
723.012	3.43533
725.905	3.10767
728.798	3.16901
731.69	1.37103
734.583	2.00174
737.476	1.48612
740.368	2.50171
743.261	0.69223
746.154	0.062256
749.047	0.652893
751.939	0.608856
754.832	1.76349
757.725	1.68628
760.617	2.70563
763.51	0.02417
766.403	0.754669
769.295	2.74847
772.188	0.291351
775.081	0.326447
777.973	1.74622
780.866	2.51852
783.759	3.09463
786.652	5.56949
789.544	7.01492
792.437	6.61459
795.33	6.21042
798.222	4.80203
801.115	1.66928
804.008	8.2572
806.9	3.96048
809.793	4.28638
812.686	3.97333
815.579	4.29474
818.471	7.57782
821.364	6.07657
824.257	7.41873
827.149	5.07849
830.042	6.5495
832.935	10.2635
835.827	9.05637
838.72	11.3432
841.613	12.8397
844.506	11.5005
847.398	11.6875
850.291	12.8599
853.184	13.073
856.076	16.5338
858.969	16.3073
861.862	17.4775
864.755	17.2924
867.647	18.6943
870.54	16.1455
873.433	17.5547
876.325	16.5531
879.218	18.2128
882.111	18.4335
885.003	24.1518
887.896	24.8177
890.789	33.7385
893.682	37.0157
896.574	34.534
899.467	30.9041
902.36	29.783
905.252	25.1072
908.145	19.6754
911.038	12.9011
913.93	10.425
916.823	6.52933
919.716	5.13226
922.609	1.76392
925.501	2.43039
928.394	3.25977
931.287	2.55087
934.179	0.42569
937.072	1.49139
939.965	0.400574
942.857	0.476379
945.75	0.505676
948.643	1.65582
951.535	5.22144
954.428	2.70911
957.321	5.73309
960.214	5.71359
963.106	7.16025
965.999	4.5368
968.892	4.14957
971.784	4.7341
974.677	2.61026
977.57	2.89368
980.462	4.56928
983.355	7.12692
986.248	7.50732
989.141	8.10751
992.033	9.18021
994.926	10.9802
997.819	9.99164
1000.71	11.1685
1003.6	11.4056
1006.5	11.6056
1009.39	8.76364
1012.28	12.0309
1015.17	13.0498
1018.07	9.27359
1020.96	9.20633
1023.85	8.27039
1026.75	2.8577
1029.64	4.93823
1032.53	1.99637
1035.42	0.063904
1038.32	1.19214
1041.21	0.373779
1044.1	0.508148
1046.99	1.08215
1049.89	0.664307
1052.78	2.47797
1055.67	2.38583
1058.57	0.315826
1061.46	3.56937
1064.35	0.113525
1067.24	1.95331
1070.14	0.774811
1073.03	1.30399
1075.92	2.9928
1078.81	2.42676
1081.71	3.42221
1084.6	5.35068
1087.49	3.26971
1090.38	6.2096
1093.28	11.2176
1096.17	8.86417
1099.06	9.74625
1101.96	15.0428
1104.85	13.1366
1107.74	15.7322
1110.63	14.3585
1113.53	13.3079
1116.42	16.8792
1119.31	17.5652
1122.2	18.8659
1125.1	22.2919
1127.99	23.7485
1130.88	26.3293
1133.78	28.2204
1136.67	31.3285
1139.56	32.3152
1142.45	34.8897
1145.35	35.865
1148.24	36.6496
1151.13	38.3308
1154.03	39.8385
1156.92	38.1748
1159.81	39.7596
1162.7	39.425
1165.6	41.3165
1168.49	46.6735
1171.38	51.4848
1174.27	62.2037
1177.17	63.0593
1180.06	67.5202
1182.95	70.0954
1185.84	75.9443
1188.74	74.7344
1191.63	77.9602
1194.52	75.9296
1197.41	77.217
1200.31	75.5216
1203.2	77.7886
1206.09	74.077
1208.99	68.1503
1211.88	61.0603
1214.77	50.5422
1217.66	40.1618
1220.56	19.0211
1223.45	3.6524
1226.34	5.70807
1229.23	7.45136
1232.13	7.54627
1235.02	2.56628
1237.91	4.62616
1240.81	12.9229
1243.7	32.0682
1246.59	47.6158
1249.48	77.4972
1252.38	111.132
1255.27	122.609
1258.16	123.646
1261.05	124.967
1263.95	125.051
1266.84	115.843
1269.73	111.684
1272.62	82.7393
1275.52	53.749
1278.41	24.3279
1281.3	0.175903
