Measurement: Raman, 532 nm, unoriented, Raman Data Processed
Mineral: Scottyite
Rruff sample: R160006
Ideal chemistry: BaCu^2+^_2_Si_2_O_7_
Locality: Graulay Quarry, Eifel, Germany
Source: Bill Pinch
Description: Aggregates of granular crystals, associated with calcite and grey elongated tabular hedenbergite
Raman shift (cm-1)	intensity
185.524	0
188.417	16.6523
191.31	25.9561
194.202	8.49512
197.095	8.19922
199.988	16.7139
202.881	3.08789
205.773	9.62207
208.666	23.9863
211.559	32.7236
214.451	77.2481
217.344	56.0508
220.237	43.291
223.129	31.8506
226.022	3.99707
228.915	11.5361
231.808	8.32227
234.7	38.3037
237.593	68.1992
240.486	42.498
243.378	19.2861
246.271	4.63769
249.164	1.66504
252.056	21.0859
254.949	38.4941
257.842	28.6562
260.735	41.5059
263.627	52.3594
266.52	43.8486
269.413	39.6338
272.305	59.4492
275.198	45.1162
278.091	46.71
280.983	26.5176
283.876	59.6973
286.769	86.7559
289.661	83.958
292.554	73.0879
295.447	101.272
298.34	177.401
301.232	247.827
304.125	270.026
307.018	237.803
309.91	254.698
312.803	274.903
315.696	252.452
318.589	179.883
321.481	121.775
324.374	119.086
327.267	102.825
330.159	82.5576
333.052	79.7568
335.945	83.1582
338.837	71.5088
341.73	78.6484
344.623	74.4902
347.515	92.7598
350.408	117.572
353.301	129.602
356.194	153.014
359.086	143.375
361.979	84.417
364.872	63.5459
367.764	31.0332
370.657	28.1299
373.55	12.7139
376.442	4.37109
379.335	5.49316
382.228	11.1289
385.121	11.3877
388.013	3.51074
390.906	31.4561
393.799	41.875
396.691	36.8848
399.584	43.8408
402.477	28.959
405.37	9.39258
408.262	3.38281
411.155	10.3848
414.048	10.8711
416.94	23.8193
419.833	11.7812
422.726	4.99902
425.618	11.1562
428.511	27.0107
431.404	16.1348
434.296	6.02441
437.189	4.83594
440.082	25.5518
442.975	35.749
445.867	76.8301
448.76	106.241
451.653	170.213
454.545	228.727
457.438	294.989
460.331	248.833
463.224	119.488
466.116	31.2891
469.009	19.5195
471.902	7.54102
474.794	21.8057
477.687	14.4277
480.58	3.55566
483.473	9.87891
486.365	6.94727
489.258	28.2217
492.151	18.9355
495.043	17.9385
497.936	1.74316
500.829	24.2012
503.721	51.6807
506.614	29.8135
509.507	26.9473
512.399	4.13086
515.292	0.899414
518.185	12.8662
521.078	18.3389
523.97	13.4023
526.863	22.5537
529.756	47.333
532.648	70.8291
535.541	45.3447
538.434	64.4072
541.327	51.294
544.219	71.5752
547.112	93.6865
550.005	132.031
552.897	198.519
555.79	259.742
558.683	286.398
561.575	238.975
564.468	174.697
567.361	125.143
570.254	98.9775
573.146	108.065
576.039	108.669
578.932	103.128
581.824	82.666
584.717	99.6807
587.61	78.4141
590.502	79.1572
593.395	69.7959
596.288	85.2803
599.181	97.5088
602.073	87.7012
604.966	94.8633
607.859	95.7998
610.751	74.0986
613.644	54.0059
616.537	28.6436
619.429	26.249
622.322	21.042
625.215	9.58496
628.107	16.8711
631	13.3457
633.893	10.5645
636.786	3.26367
639.678	8.77441
642.571	2.18262
645.464	16.416
648.356	4.82617
651.249	34.1152
654.142	45.1816
657.034	39.3193
659.927	56.8369
662.82	79.2812
665.713	111.374
668.605	168.753
671.498	238.596
674.391	236.272
677.283	186.815
680.176	126.272
683.069	59.2656
685.962	56.6103
688.854	37.3398
691.747	26.1611
694.64	27.0078
697.532	37.2432
700.425	21.5049
703.318	0.042969
706.21	15.1104
709.103	6.32227
711.996	5.08691
714.889	16.8535
717.781	3.05078
720.674	3.22168
723.567	9.57324
726.459	9.10645
729.352	13.751
732.245	22.0732
735.137	19.5518
738.03	31.498
740.923	35.415
743.816	32.1289
746.708	33.5752
749.601	22.0303
752.494	17.7188
755.386	9.62109
758.279	3.05371
761.172	14.2764
764.064	5.5166
766.957	1.23828
769.85	14.5723
772.742	19.2129
775.635	22.1602
778.528	31.417
781.421	28.7178
784.313	39.4033
787.206	12.5449
790.099	9.23242
792.991	25.1777
795.884	23.999
798.777	17.0918
801.669	13.3525
804.562	1.25098
807.455	11.2822
810.348	0.253906
813.24	8.52832
816.133	3.09961
819.026	55.7705
821.918	24.1055
824.811	17.5215
827.704	16.2373
830.597	22.2529
833.489	11.5146
836.382	11.459
839.275	35.4512
842.167	10.3418
845.06	10.0361
847.953	2.96582
850.846	21.3428
853.738	14.3935
856.631	12.1338
859.524	18.9424
862.416	44.3213
865.309	55.3272
868.202	58.3252
871.094	57.1084
873.987	12.4727
876.88	9.00977
879.773	12.0049
882.665	44.043
885.558	58.8232
888.451	73.6494
891.343	116.26
894.236	162.224
897.129	153.857
900.021	128.329
902.914	105.769
905.807	83.3057
908.699	51.3125
911.592	28.1426
914.485	17.9756
917.378	6.70019
920.27	9.74121
923.163	19.8594
926.056	26.0225
928.948	19.4307
931.841	21.0781
934.734	11.9326
937.626	3.39746
940.519	31.3506
943.412	29.7266
946.305	9.31445
949.197	8.4043
952.09	19.9082
954.983	16.1104
957.875	34.2051
960.768	33.9746
963.661	40.7129
966.553	14.1768
969.446	7.28711
972.339	6.09961
975.232	2.70898
978.124	33.6377
981.017	10.2197
983.91	8.80078
986.802	11.6592
989.695	3.47852
992.588	13.0381
995.481	6.55664
998.373	2.36621
1001.27	5.06641
1004.16	16.0146
1007.05	29.8252
1009.94	37.7744
1012.84	53.0283
1015.73	69.3769
1018.62	81.9863
1021.51	37.3242
1024.41	38.6953
1027.3	36.291
1030.19	29.4023
1033.09	42.1006
1035.98	16.4326
1038.87	25.5205
1041.76	38.4287
1044.66	61.9463
1047.55	53.9766
1050.44	38.876
1053.33	41.1562
1056.23	44.1455
1059.12	41.2978
1062.01	49.874
1064.9	41.25
1067.8	43.2539
1070.69	32.5625
1073.58	34.6406
1076.48	37.9795
1079.37	32.5303
1082.26	27.1094
1085.15	16.96
1088.05	33.9629
1090.94	29.417
1093.83	22.916
1096.72	25.6113
1099.62	23.1016
1102.51	16.7217
1105.4	3.09082
1108.3	7.03613
1111.19	12.873
1114.08	21.7109
1116.97	9.67383
1119.87	1.06836
1122.76	10.9229
1125.65	16.5781
1128.55	4.87109
1131.44	2.52734
1134.33	2.60742
1137.22	11.8604
1140.12	36.581
1143.01	30.7246
1145.9	10.7627
1148.79	17.4707
1151.69	22.1514
1154.58	26.7236
1157.47	29.8525
1160.36	38.7842
1163.26	51.1885
1166.15	53.5352
1169.04	55.1602
1171.93	35.6582
1174.83	37.7295
1177.72	26.7207
1180.61	30.6758
1183.51	33.9209
1186.4	52.3145
1189.29	50.5322
1192.18	46.8496
1195.08	59.6123
1197.97	48.5469
1200.86	38.9805
1203.76	59.1084
1206.65	49.9043
1209.54	45.3682
1212.43	35.7803
1215.33	37.916
1218.22	45.79
1221.11	46.0938
1224	41.792
1226.9	29.6455
1229.79	31.3867
1232.68	33.2363
1235.58	14.9854
1238.47	8.18652
1241.36	6.70703
1244.25	5.14746
1247.14	15.4355
1250.04	19.291
1252.93	23.2168
1255.82	29.0596
1258.72	35.1787
1261.61	32.2002
1264.5	10.3604
1267.39	19.3867
1270.29	17.7471
1273.18	3.05957
1276.07	1.36719
1278.96	0.573242
1281.86	5.81738
1284.75	12.6084
1287.64	26.7246
1290.54	24.3672
1293.43	14.7949
1296.32	1.17773
1299.21	5.28418
