Measurement: Raman, 780 nm, unoriented, Raman Data Processed
Mineral: Scottyite
Rruff sample: R141116
Ideal chemistry: BaCu^2+^_2_Si_2_O_7_
Locality: Wessels mine, Kalahari manganese field, Northern Cape Province, South Africa
Source: Jaco and Tania Janse van Nieuwenhuizen
Description: Dark blue granular or blocky crystals associated with light-blue platy lavinskyite (R141115) and blue wesselsite.
Measured chemistry: Ba_1.01_Sr_0.02_Cu_2.03_Na_0.01_Si_1.97_O_7_; (Scottyite is light grey material in image, associated with dark grey R141115 lavinskyite)
Raman shift (cm-1)	intensity
119.041	0
122.415	7.86462
125.79	18.615
129.165	4.02371
132.54	6.25441
135.915	0.913879
139.29	1.99757
142.664	8.93248
146.039	6.42818
149.414	6.96832
152.789	20.8797
156.163	37.6304
159.538	48.5227
162.913	58.4964
166.288	31.038
169.663	13.8541
173.038	12.1774
176.412	4.97349
179.787	0.520538
183.162	3.07194
186.537	0.657143
189.912	1.80894
193.286	4.35671
196.661	1.41559
200.036	3.83335
203.411	4.33176
206.786	5.18755
210.161	5.55228
213.535	8.11138
216.91	10.1093
220.285	10.9085
223.66	10.2539
227.035	11.361
230.409	11.4833
233.784	10.3265
237.159	13.3152
240.534	10.3266
243.909	10.9207
247.284	8.92114
250.658	8.78523
254.033	5.83828
257.408	6.18491
260.783	6.3214
264.158	7.03575
267.532	4.64726
270.907	2.87516
274.282	2.82363
277.657	0.231876
281.032	0.598587
284.406	1.62381
287.781	1.5725
291.156	1.96604
294.531	3.85648
297.906	9.1515
301.281	17.6699
304.655	28.0301
308.03	29.1798
311.405	25.7699
314.78	34.0391
318.155	38.4348
321.529	23.8026
324.904	9.50986
328.279	5.53008
331.654	2.94961
335.029	2.43722
338.404	0.357922
341.778	1.71315
345.153	1.35844
348.528	1.01463
351.903	2.86364
355.278	3.56059
358.652	9.21239
362.027	10.8829
365.402	6.07595
368.777	1.85254
372.152	1.59976
375.526	0.105141
378.901	1.72808
382.276	0.793308
385.651	0.449425
389.026	0.666817
392.401	0.12252
395.775	0.130699
399.15	0.173336
402.525	0.211918
405.9	0.536945
409.275	0.845757
412.649	1.2391
416.024	0.118759
419.399	0.605095
422.774	0.774048
426.149	2.01853
429.524	1.12753
432.898	1.35718
436.273	1.47555
439.648	2.72614
443.023	2.28815
446.398	4.34195
449.772	5.90146
453.147	12.8232
456.522	22.0326
459.897	42.9336
463.272	32.7739
466.647	12.387
470.021	6.04831
473.396	3.56002
476.771	2.41718
480.146	2.02081
483.521	2.6618
486.895	2.23515
490.27	2.13947
493.645	0.073811
497.02	0.900684
500.395	0.932957
503.769	1.43836
507.144	0.843243
510.519	0.956085
513.894	0.453377
517.269	0.218636
520.644	0.322132
524.018	1.14781
527.393	0.602753
530.768	0.454861
534.143	0.321342
537.518	3.3007
540.892	2.51351
544.267	3.83189
547.642	5.42806
551.017	7.12157
554.392	12.2271
557.766	23.4077
561.141	38.0682
564.516	42.0033
567.891	26.0014
571.266	13.7415
574.64	8.53392
578.015	6.84295
581.39	5.29821
584.765	5.3118
588.14	5.13105
591.515	5.24352
594.889	3.35486
598.264	4.3157
601.639	5.78067
605.014	5.86641
608.389	4.66526
611.764	3.30417
615.138	2.82908
618.513	1.41559
621.888	1.60236
625.263	0.177322
628.638	0.034821
632.012	0.098782
635.387	0.013683
638.762	0.856049
642.137	1.3262
645.512	0.742214
648.886	2.02426
652.261	0.160324
655.636	1.71852
659.011	1.44495
662.386	3.37627
665.76	5.91168
669.135	12.6239
672.51	22.2588
675.885	35.132
679.26	36.4984
682.635	22.0745
686.009	11.0558
689.384	4.84719
692.759	2.32896
696.134	1.26112
699.509	0.277897
702.884	1.31378
706.258	2.3824
709.633	0.774757
713.008	0.888958
716.383	1.26535
719.758	2.60531
723.132	1.31404
726.507	0.954441
729.882	0.56472
733.257	0.685692
736.632	1.4011
740.006	0.278023
743.381	1.48404
746.756	0.912064
750.131	1.3526
753.506	1.11795
756.88	0.255268
760.255	1.69422
763.63	1.58152
767.005	1.05569
770.38	1.36806
773.755	0.021362
777.129	3.08376
780.504	1.47199
783.879	1.97716
787.254	1.9164
790.629	0.97155
794.003	0.006992
797.378	2.69344
800.753	1.25354
804.128	0.403156
807.503	1.90719
810.878	1.63834
814.252	0.985512
817.627	0.788727
821.002	1.41441
824.377	1.3662
827.752	0.700081
831.126	1.23229
834.501	1.83131
837.876	0.308922
841.251	0.757027
844.626	0.299187
848	0.048538
851.375	0.520004
854.75	0.107422
858.125	1.52087
861.5	0.21759
864.875	1.36277
868.249	1.95943
871.624	2.49196
874.999	1.29791
878.374	0.010147
881.749	2.60644
885.123	1.67568
888.498	7.35634
891.873	11.9164
895.248	17.7413
898.623	22.5599
901.997	21.2906
905.372	19.5573
908.747	14.9446
912.122	11.4801
915.497	8.00925
918.872	3.34834
922.246	3.12891
925.621	2.99248
928.996	2.04718
932.371	0.09388
935.746	1.49451
939.12	0.611122
942.495	0.286674
945.87	2.25542
949.245	2.40643
952.62	2.58613
955.995	4.21808
959.369	3.58106
962.744	2.47609
966.119	2.2641
969.494	1.50056
972.869	2.00001
976.243	0.976074
979.618	1.06431
982.993	0.777863
986.368	1.11646
989.743	1.37365
993.117	0.488235
996.492	1.20241
999.867	0.472389
1003.24	2.15617
1006.62	1.15617
1009.99	1.35434
1013.37	0.30098
1016.74	2.97343
1020.12	2.86537
1023.49	1.59575
1026.87	1.55417
1030.24	1.45529
1033.62	1.86079
1036.99	1.30666
1040.37	0.827759
1043.74	2.11877
1047.12	2.81961
1050.49	1.81059
1053.86	1.98221
1057.24	0.404938
1060.61	1.59909
1063.99	0.773453
1067.36	1.78159
1070.74	1.70717
1074.11	0.727448
1077.49	0.181671
1080.86	3.3517
1084.24	0.198746
1087.61	1.95238
1090.99	1.32016
1094.36	2.37975
1097.74	2.63626
1101.11	1.16255
1104.49	4.00859
1107.86	1.08211
1111.24	1.43185
1114.61	1.87193
1117.99	0.488937
1121.36	1.03775
1124.73	1.4969
1128.11	2.04559
1131.48	0.535721
1134.86	0.891891
1138.23	1.17297
1141.61	0.854187
1144.98	1.98474
1148.36	2.37305
1151.73	0.662384
1155.11	1.43658
1158.48	2.451
1161.86	2.36881
1165.23	1.95558
1168.61	2.50705
1171.98	2.54668
1175.36	2.2262
1178.73	3.28687
1182.11	2.04138
1185.48	4.67331
1188.86	1.82712
1192.23	2.00296
1195.61	4.25742
1198.98	1.2944
1202.36	3.84662
1205.73	1.39654
1209.11	4.74442
1212.48	2.43356
1215.86	1.19919
1219.23	1.85928
1222.61	0.453644
1225.98	0.207977
1229.35	2.3562
1232.73	2.26425
1236.1	4.15021
1239.48	0.926758
1242.85	1.83957
1246.23	0.458588
1249.6	2.65576
1252.98	3.22119
1256.35	2.50885
1259.73	3.05716
1263.1	3.1564
1266.48	2.7374
1269.85	1.36511
1273.23	1.17664
1276.6	4.01678
1279.98	2.99536
1283.35	3.29044
