Measurement: Raman, 780 nm, unoriented, Raman Data Processed
Mineral: Scottyite
Rruff sample: R150111
Ideal chemistry: BaCu^2+^_2_Si_2_O_7_
Locality: Synthetic
Source: Yan Chen and Shouhua Feng
Description: Dark blue powder
Raman shift (cm-1)	intensity
111.327	0
114.701	11.7097
118.076	37.7817
121.451	41.1533
124.826	25.1357
128.201	4.39551
131.576	4.70068
134.95	1.88916
138.325	12.605
141.7	28.6611
145.075	48.7361
148.45	48.9216
151.825	55.0772
155.199	73.1406
158.574	92.8701
161.949	74.7341
165.324	60.5317
168.698	30.1819
172.073	18.8787
175.448	3.12524
178.823	1.37622
182.198	2.66455
185.573	2.64478
188.947	0.053223
192.322	3.73779
195.697	2.46533
199.072	8.09204
202.447	3.50366
205.821	2.5581
209.196	8.16699
212.571	5.7207
215.946	9.47559
219.321	16.5737
222.696	2.13672
226.07	9.79126
229.445	21.5964
232.82	15.9016
236.195	5.55444
239.57	16.4038
242.945	15.7227
246.319	20.9231
249.694	6.96533
253.069	3.51685
256.444	3.68603
259.818	17.1179
263.193	8.11865
266.568	7.02564
269.943	11.6836
273.318	5.58594
276.693	14.5
280.067	15.9429
283.442	21.6951
286.817	21.8342
290.192	26.519
293.567	32.134
296.942	35.23
300.316	42.4404
303.691	21.834
307.066	18.5776
310.441	21.394
313.816	17.4915
317.19	2.10596
320.565	9.14575
323.94	9.55347
327.315	0.794678
330.69	11.4746
334.065	4.75415
337.439	11.0884
340.814	3.10034
344.189	13.8948
347.564	8.3169
350.938	7.77393
354.313	2.11353
357.688	8.61694
361.063	3.7959
364.438	10.9941
367.813	0.945313
371.187	9.52197
374.562	8.87036
377.937	0.315918
381.312	2.78149
384.687	1.71826
388.062	10.3626
391.436	5.0293
394.811	1.74365
398.186	3.14453
401.561	3.02734
404.935	3.58106
408.31	6.31519
411.685	5.51685
415.06	5.68774
418.435	9.18945
421.81	9.07153
425.184	8.88989
428.559	16.3899
431.934	22.1409
435.309	15.9497
438.684	14.7866
442.058	25.0808
445.433	20.1545
448.808	28.696
452.183	38.6103
455.558	47.2134
458.933	55.4766
462.307	45.8762
465.682	28.1284
469.057	36.8938
472.432	26.0207
475.807	20.7493
479.182	1.43384
482.556	21.0325
485.931	14.0337
489.306	15.5076
492.681	18.4666
496.055	11.3032
499.43	7.34302
502.805	3.69409
506.18	7.04004
509.555	11.6982
512.93	6.12183
516.304	6.87305
519.679	2.81763
523.054	4.24707
526.429	6.13306
529.804	7.59448
533.178	1.65039
536.553	6.07422
539.928	8.70483
543.303	14.3491
546.678	10.7664
550.053	15.3001
553.427	20.6436
556.802	21.5173
560.177	18.7527
563.552	11.7429
566.927	6.85034
570.302	20.6209
573.676	5.73267
577.051	13.7229
580.426	19.115
583.801	8.74121
587.176	4.92896
590.55	4.90845
593.925	6.61475
597.3	5.00977
600.675	9.10083
604.05	2.68042
607.424	9.27979
610.799	0.421387
614.174	7.64844
617.549	6.18018
620.924	5.9624
624.298	2.13281
627.673	1.70093
631.048	5.77148
634.423	11.9744
637.798	13.3076
641.173	7.10156
644.547	11.6021
647.922	8.36157
651.297	11.9282
654.672	8.91992
658.047	26.3643
661.421	14.8977
664.796	35.9775
668.171	31.9114
671.546	25.5859
674.921	20.4065
678.295	23.1768
681.67	5.09839
685.045	13.4619
688.42	8.89185
691.795	2.07349
695.17	3.48193
698.544	7.01733
701.919	0.339111
705.294	2.13184
708.669	0.549316
712.044	4.26245
715.418	14.8579
718.793	20.7231
722.168	9.86548
725.543	7.66894
728.918	10.0061
732.293	8.71826
735.667	17.0701
739.042	17.3132
742.417	6.62524
745.792	7.35498
749.167	8.052
752.541	11.4036
755.916	6.82642
759.291	3.79907
762.666	3.3081
766.041	4.52295
769.415	1.95947
772.79	6.40503
776.165	4.17627
779.54	6.01953
782.915	7.23291
786.29	6.47144
789.664	3.11914
793.039	10.1599
796.414	8.17407
799.789	9.27417
803.164	0.516602
806.538	13.2127
809.913	9.50562
813.288	11.5479
816.663	3.61523
820.038	9.68213
823.413	16.1067
826.787	6.16894
830.162	11.1179
833.537	2.94849
836.912	5.49365
840.287	7.46826
843.661	9.7522
847.036	8.95508
850.411	11.8899
853.786	10.0425
857.161	3.60864
860.535	10.3896
863.91	11.1187
867.285	17.5967
870.66	7.41748
874.035	7.87622
877.409	10.8484
880.784	12.6958
884.159	14.8159
887.534	19.0906
890.909	12.4499
894.284	15.9543
897.658	16.647
901.033	18.6694
904.408	11.1477
907.783	15.4331
911.158	11.0449
914.533	3.1272
917.907	5.88232
921.282	12.4204
924.657	2.83813
928.032	1.02612
931.407	6.19043
934.781	4.06836
938.156	14.6907
941.531	1.56299
944.906	6.04199
948.281	14.989
951.655	8.43115
955.03	8.8894
958.405	12.0649
961.78	14.6609
965.155	2.10571
968.529	5.17383
971.904	1.14062
975.279	1.10718
978.654	8.00928
982.029	1.53394
985.404	7.7417
988.778	5.12622
992.153	7.27441
995.528	4.56372
998.903	16.1216
1002.28	8.93433
1005.65	21.7637
1009.03	22.873
1012.4	12.6751
1015.78	11.4316
1019.15	22.0532
1022.53	4.0415
1025.9	11.304
1029.28	9.5896
1032.65	9.27808
1036.03	7.04834
1039.4	9.99512
1042.78	26.9756
1046.15	17.6858
1049.53	19.3267
1052.9	16.6128
1056.28	17.4334
1059.65	16.6399
1063.02	20.7175
1066.4	18.2168
1069.77	13.9861
1073.15	20.4448
1076.52	16.5559
1079.9	9.15332
1083.27	9.33643
1086.65	28.3547
1090.02	4.15918
1093.4	3.24683
1096.77	1.79175
1100.15	11.1575
1103.52	8.95044
1106.9	4.4353
1110.27	17.7559
1113.65	0.712402
1117.02	6.37085
1120.4	11.2224
1123.77	4.9397
1127.15	5.66284
1130.52	8.72681
1133.9	12.4712
1137.27	13.6819
1140.64	9.80566
1144.02	24.4443
1147.39	17.3384
1150.77	23.0977
1154.14	18.8413
1157.52	22.6838
1160.89	20.3672
1164.27	18.0691
1167.64	19.2285
1171.02	31.481
1174.39	37.3999
1177.77	25.3513
1181.14	29.2065
1184.52	26.9373
1187.89	23.0708
1191.27	26.7268
1194.64	24.4954
1198.02	25.4844
1201.39	34.7529
1204.77	41.9253
1208.14	25.8225
1211.52	19.5537
1214.89	36.7744
1218.27	16.9507
1221.64	5.27466
1225.02	2.93945
1228.39	23.8894
1231.77	20.7683
1235.14	19.4514
1238.52	3.51587
1241.89	7.76392
1245.26	4.55762
1248.64	13.7695
1252.01	14.698
1255.39	6.68774
1258.76	12.2078
1262.14	15.6599
1265.51	17.5681
1268.89	12.3332
1272.26	10.6174
1275.64	6.61108
1279.01	8.35425
1282.39	11.8249
