Measurement: Raman, 532 nm, unoriented, Raman Data Processed
Mineral: Scottyite
Rruff sample: R120077
Ideal chemistry: BaCu^2+^_2_Si_2_O_7_
Locality: Wessels mine, Kalahari manganese field, Northern Cape Province, South Africa
Source: William W. Pinch and Marcus Origlieri
Description: Blue massive, associated with R120019 wesselsite and R120057 lavinskyite
Measured chemistry: Ba_1.00_Sr_0.01_Na_0.01_Cu_2.04_Si_1.97_O_7_ ; (Scottyite is light grey material in image, associated with dark grey R120057 lavinskyite, and medium gray R120019 wesselsite
Raman shift (cm-1)	intensity
89.7832	0
93.158	64.073
96.5328	40.4669
99.9077	15.6135
103.282	2.00638
106.657	11.6767
110.032	29.6586
113.407	1.73807
116.782	36.7697
120.157	39.5656
123.531	66.2501
126.906	19.039
130.281	15.0799
133.656	12.5188
137.031	3.18332
140.405	29.7666
143.78	7.92789
147.155	11.4359
150.53	28.5216
153.905	53.2537
157.28	83.0486
160.654	98.561
164.029	79.8657
167.404	37.9314
170.779	47.7509
174.154	57.2887
177.528	45.0376
180.903	16.1133
184.278	4.80838
187.653	6.56293
191.028	12.3936
194.403	2.1335
197.777	3.52544
201.152	0.509964
204.527	1.3172
207.902	0.722748
211.277	5.03418
214.651	11.9957
218.026	13.2738
221.401	17.2491
224.776	13.6102
228.151	9.2652
231.525	0.414093
234.9	1.30098
238.275	3.06101
241.65	4.8259
245.025	8.08412
248.4	5.83989
251.774	2.64313
255.149	3.65091
258.524	0.415176
261.899	2.1514
265.274	0.665924
268.649	0.004333
272.023	0.301651
275.398	4.63928
278.773	3.51948
282.148	0.482788
285.523	3.57675
288.897	6.26944
292.272	9.47993
295.647	11.5187
299.022	22.2961
302.397	39.0371
305.772	46.1873
309.146	60.4637
312.521	81.6544
315.896	92.4323
319.271	70.4824
322.646	44.9342
326.02	25.4745
329.395	27.9032
332.77	18.1577
336.145	9.42705
339.52	6.40125
342.894	10.0962
346.269	17.6199
349.644	23.0877
353.019	27.7319
356.394	43.5954
359.769	58.18
363.143	40.8374
366.518	17.6377
369.893	7.92415
373.268	3.13506
376.643	0.246552
380.017	3.83559
383.392	0.861084
386.767	2.95076
390.142	2.28941
393.517	1.93512
396.892	1.76623
400.266	0.063141
403.641	1.55112
407.016	0.722672
410.391	4.17072
413.766	1.40341
417.14	4.93863
420.515	1.3445
423.89	3.17305
427.265	4.99454
430.64	4.26595
434.014	3.50604
437.389	3.87499
440.764	5.97188
444.139	7.84927
447.514	11.0371
450.889	21.9893
454.263	30.5998
457.638	47.8377
461.013	46.6587
464.388	27.1233
467.763	10.3395
471.137	7.49028
474.512	1.20795
477.887	1.72739
481.262	4.69531
484.637	1.08746
488.012	3.01779
491.386	2.67812
494.761	6.0419
498.136	6.26198
501.511	3.98335
504.886	2.67152
508.26	3.4904
511.635	0.58284
515.01	1.08734
518.385	1.06227
521.76	4.77316
525.135	2.98177
528.509	4.71017
531.884	4.12472
535.259	6.96793
538.634	8.35149
542.009	8.04825
545.384	12.9648
548.758	21.2581
552.133	42.4419
555.508	60.5523
558.883	81.5649
562.258	91.9824
565.632	60.2251
569.007	36.7014
572.382	23.651
575.757	20.1085
579.132	19.2542
582.506	16.665
585.881	12.9191
589.256	14.679
592.631	15.7444
596.006	17.0191
599.381	19.6733
602.755	22.9053
606.13	19.9829
609.505	16.4219
612.88	13.3284
616.255	8.12831
619.63	2.71382
623.004	1.76474
626.379	0.998611
629.754	3.76945
633.129	0.01059
636.504	1.29791
639.878	2.46169
643.253	0.360016
646.628	1.24802
650.003	1.71104
653.378	4.17996
656.752	7.77495
660.127	11.0832
663.502	14.5566
666.877	30.616
670.252	45.4414
673.626	70.7514
677.001	78.9118
680.376	51.2908
683.751	28.1382
687.126	15.7963
690.501	11.721
693.875	6.20978
697.25	4.23067
700.625	2.48595
704	6.5808
707.375	3.68495
710.75	3.78362
714.124	2.08661
717.499	3.13028
720.874	2.85545
724.249	4.57408
727.624	2.4559
730.998	4.41653
734.373	5.68144
737.748	3.39009
741.123	3.39476
744.498	7.76398
747.872	2.56
751.247	2.7334
754.622	3.71597
757.997	7.12286
761.372	5.91571
764.747	4.05368
768.121	6.13907
771.496	0.0746
774.871	5.76781
778.246	3.91394
781.621	2.9512
784.995	2.29318
788.37	4.59708
791.745	4.27873
795.12	5.04614
798.495	2.28157
801.87	2.81827
805.244	0.223724
808.619	1.24439
811.994	2.52183
815.369	4.37241
818.744	3.18773
822.119	2.82375
825.493	1.61275
828.868	3.30762
832.243	2.79768
835.618	2.86043
838.993	0.35704
842.367	0.453461
845.742	1.77293
849.117	1.09775
852.492	2.71449
855.867	2.6171
859.241	4.64018
862.616	7.0892
865.991	13.5619
869.366	8.71484
872.741	6.32996
876.115	0.992905
879.49	1.29199
882.865	6.43144
886.24	10.9696
889.615	21.3516
892.99	38.3668
896.364	37.5787
899.739	34.8393
903.114	29.6502
906.489	29.2947
909.864	16.9992
913.239	8.35063
916.613	4.13959
919.988	9.24245
923.363	7.98998
926.738	3.08758
930.113	5.77367
933.487	5.4707
936.862	6.10004
940.237	6.07369
943.612	1.84709
946.987	5.00221
950.361	5.8416
953.736	3.27272
957.111	5.41473
960.486	5.45555
963.861	0.969376
967.236	3.66177
970.61	3.72507
973.985	1.41098
977.36	2.86821
980.735	1.81459
984.11	1.92461
987.485	0.955399
990.859	2.96979
994.234	3.24884
997.609	0.610046
1000.98	0.882431
1004.36	2.33334
1007.73	3.23831
1011.11	5.64212
1014.48	14.479
1017.86	15.9599
1021.23	13.929
1024.61	10.1577
1027.98	8.64131
1031.36	3.78775
1034.73	4.16203
1038.11	3.71033
1041.48	2.38199
1044.86	6.0704
1048.23	0.540558
1051.61	6.68637
1054.98	1.99834
1058.36	3.19685
1061.73	1.1002
1065.11	2.01337
1068.48	3.03925
1071.86	1.18956
1075.23	2.38728
1078.6	2.10802
1081.98	2.05337
1085.35	5.83998
1088.73	1.89346
1092.1	5.94025
1095.48	4.81001
1098.85	3.24583
1102.23	2.16287
1105.6	2.6014
1108.98	0.77179
1112.35	5.42905
1115.73	6.19339
1119.1	2.64066
1122.48	5.94675
1125.85	0.786057
1129.23	6.34973
1132.6	1.37857
1135.98	1.49268
1139.35	6.13458
1142.73	5.63016
1146.1	6.93582
1149.48	0.609467
1152.85	0.743561
1156.22	6.3902
1159.6	1.50699
1162.97	7.28526
1166.35	3.50917
1169.72	3.4055
1173.1	1.95863
1176.47	3.54044
1179.85	3.66316
1183.22	3.72661
1186.6	2.56854
1189.97	3.08588
1193.35	2.77007
1196.72	5.16017
1200.1	4.20782
1203.47	5.77977
1206.85	6.40465
1210.22	2.18716
1213.6	2.87558
1216.97	2.86948
1220.35	0.68515
1223.72	2.95975
1227.1	3.03803
1230.47	4.87605
1233.85	3.74641
1237.22	2.31378
1240.6	5.19017
1243.97	0.394684
1247.35	5.64783
1250.72	4.8658
1254.1	6.0956
1257.47	0.248886
1260.85	1.25925
1264.22	4.03303
1267.59	1.94663
1270.97	2.85295
1274.34	4.21326
1277.72	1.30016
1281.09	3.33072
1284.47	2.72555
1287.84	1.46986
1291.22	4.61795
1294.59	2.15671
1297.97	1.57042
1301.34	0.100708
