Measurement: Raman, 532 nm, unoriented, Raman Data Processed
Mineral: Scrutinyite
Rruff sample: R080018
Ideal chemistry: Pb^4+^O_2_
Locality: Snake Pit, lower Mex-Tex mine, Hansonburg District, Socorro County, New Mexico, USA
Source: William W. Pinch
Description: Dark reddish brown thin rectangular plates associated with black plattnerite, R080019, on the surface of a quartz crystal.
Raman shift (cm-1)	intensity
147.885	0
151.26	0.207184
154.635	1.19511
158.01	0.935509
161.385	3.85087
164.76	7.70731
168.134	7.994
171.509	3.70546
174.884	1.77925
178.259	0.155319
181.634	0.283504
185.008	1.30757
188.383	0.201462
191.758	0.265419
195.133	1.05615
198.508	1.36404
201.882	2.9038
205.257	3.36397
208.632	5.48785
212.007	6.37699
215.382	8.76722
218.757	11.2582
222.131	13.1135
225.506	15.6001
228.881	13.5837
232.256	9.74361
235.631	6.97382
239.006	5.15991
242.38	4.08222
245.755	3.40945
249.13	2.85912
252.505	1.59616
255.88	0.321388
259.254	0.735939
262.629	0.449154
266.004	1.23692
269.379	0.31731
272.754	0.971939
276.128	0.135731
279.503	0.630131
282.878	1.1613
286.253	0.230507
289.628	0.467308
293.002	0.937172
296.377	-0.0102523
299.752	0.548393
303.127	0.303963
306.502	0.771431
309.877	0.049271
313.251	0.337559
316.626	1.2788
320.001	0.500019
323.376	0.293068
326.751	1.41817
330.125	0.61483
333.5	0.831867
336.875	1.16808
340.25	1.25743
343.625	1.21819
347	2.39587
350.374	2.85293
353.749	3.27061
357.124	4.50896
360.499	4.6729
363.874	4.13189
367.248	3.46139
370.623	2.69927
373.998	1.49841
377.373	1.06702
380.748	1.24426
384.123	0.826412
387.497	0.64328
390.872	0.332375
394.247	0.239704
397.622	0.223839
400.997	0.266529
404.371	0.606953
407.746	0.702816
411.121	0.850166
414.496	2.09967
417.871	2.13963
421.245	3.08955
424.62	4.14285
427.995	4.88596
431.37	4.55429
434.745	4.45692
438.12	4.00692
441.494	2.02976
444.869	1.21325
448.244	1.69985
451.619	0.754902
454.994	0.660671
458.368	0.40836
461.743	0.098492
465.118	0.337196
468.493	0.017895
471.868	0.499771
475.243	0.251797
478.617	0.616886
481.992	0.055096
485.367	0.00082
488.742	0.879112
492.117	0.489616
495.491	1.50249
498.866	1.57128
502.241	1.85353
505.616	2.09327
508.991	2.08825
512.365	1.95791
515.74	2.14811
519.115	2.24209
522.49	3.08231
525.865	2.34358
529.24	2.86689
532.614	2.08569
535.989	2.13975
539.364	1.33337
542.739	1.67905
546.114	1.40395
549.489	0.985153
552.863	1.26859
556.238	1.22531
559.613	0.991596
562.988	0.534031
566.363	1.32308
569.737	0.8909
573.112	0.881817
576.487	1.00996
579.862	0.949295
583.237	0.654423
586.611	0.908501
589.986	1.49119
593.361	0.733604
596.736	1.26767
600.111	1.61356
603.486	2.32622
606.86	2.68565
610.235	3.39199
613.61	3.44829
616.985	3.35709
620.36	3.24404
623.735	2.46685
627.109	2.59029
630.484	2.0204
633.859	1.84743
637.234	1.16619
640.609	1.23358
643.983	0.650703
647.358	0.098167
650.733	0.321331
654.108	0.26318
657.483	0.15958
660.857	0.549152
664.232	0.157585
667.607	0.11887
670.982	0.636086
674.357	0.035412
677.732	0.228004
681.106	0.418701
684.481	0.348293
687.856	0.565903
691.231	0.087574
694.606	0.884953
697.981	0.085598
701.355	0.23777
704.73	0.969692
708.105	0.588818
711.48	0.860912
714.855	0.479294
718.229	0.386959
721.604	0.640415
724.979	0.669125
728.354	0.321564
731.729	0.330227
735.103	0.831184
738.478	0.527729
741.853	0.208138
745.228	0.373524
748.603	0.471241
751.977	0.815758
755.352	0.370053
758.727	0.624615
762.102	0.520233
765.477	0.622734
768.852	0.35627
772.226	1.07166
775.601	0.639339
778.976	0.668427
782.351	0.645756
785.726	0.56662
789.101	0.471043
792.475	0.292522
795.85	0.124569
799.225	0.711102
802.6	0.457947
805.975	0.622044
809.349	0.397583
812.724	0.438068
816.099	0.828609
819.474	0.367577
822.849	0.426697
826.223	0.814674
829.598	0.100071
832.973	0.507294
836.348	0.41629
839.723	0.564789
843.097	0.398731
846.472	0.271149
849.847	0.232822
853.222	0.582329
856.597	1.04065
859.972	0.78344
863.346	1.13115
866.721	0.744415
870.096	0.581711
873.471	1.02266
876.846	0.618057
880.221	0.767815
883.595	0.628502
886.97	0.500046
890.345	0.581764
893.72	0.285572
897.095	0.342981
900.469	0.619223
903.844	0.461353
907.219	0.637623
910.594	0.151739
913.969	0.273817
917.343	0.489141
920.718	1.1952
924.093	0.018215
927.468	0.136864
930.843	0.443071
934.218	0.408777
937.592	0.494879
940.967	0.344557
944.342	0.155397
947.717	0.287994
951.092	0.527304
954.466	0.496737
957.841	0.338467
961.216	0.024374
964.591	0.243361
967.966	0.210354
971.341	0.469913
974.715	0.652338
978.09	0.294739
981.465	0.231825
984.84	0.354246
988.215	0.448515
991.589	0.268272
994.964	0.406286
998.339	0.043594
1001.71	0.309816
1005.09	0.209045
1008.46	0.442591
1011.84	0.661993
1015.21	0.149912
1018.59	0.254013
1021.96	1.2469
1025.34	0.379646
1028.71	0.668924
1032.09	1.31086
1035.46	0.428415
1038.84	0.9209
1042.21	0.460274
1045.59	0.536585
1048.96	0.729427
1052.34	0.377878
1055.71	0.180893
1059.09	0.141724
1062.46	0.462811
1065.84	0.832279
1069.21	0.120678
1072.59	0.485586
1075.96	0.675789
1079.34	0.829372
1082.71	0.228012
1086.08	0.51701
1089.46	0.66534
1092.83	0.581497
1096.21	0.724482
1099.58	0.779562
1102.96	0.357426
1106.33	0.446424
1109.71	0.256678
1113.08	0.359257
1116.46	0.403742
1119.83	0.888002
1123.21	0.061398
1126.58	0.305096
1129.96	0.097708
1133.33	0.605309
1136.71	0.270079
1140.08	0.721064
1143.46	0.519669
1146.83	0.219461
1150.21	0.708342
1153.58	0.203787
1156.95	0.384329
1160.33	0.122015
1163.7	0.763554
1167.08	0.200283
1170.45	0.281013
1173.83	0.154028
1177.2	0.103117
1180.58	0.301054
1183.95	0.298594
1187.33	0.863863
1190.7	0.426012
1194.08	0.403372
1197.45	0.215782
1200.83	0.369932
1204.2	0.308535
1207.58	0.585398
1210.95	0.827787
1214.33	0.936913
1217.7	0.596426
1221.08	1.24572
1224.45	0.778549
1227.83	1.54397
1231.2	0.732533
1234.58	1.52625
1237.95	1.04845
1241.33	0.961872
1244.7	0.655184
1248.08	1.17835
1251.45	1.33766
1254.83	1.13996
1258.2	0.650658
1261.58	0.60169
1264.95	1.17236
1268.32	0.447395
1271.7	0.573887
1275.07	0.26823
1278.45	0.406492
1281.82	0.008074
1285.2	0.179268
1288.57	0.130436
1291.95	0.416176
1295.32	0.121061
1298.7	0.504002
1302.07	0.656395
