Measurement: Raman, 532 nm, unoriented, Raman Data Processed
Mineral: Selenium
Rruff sample: R060137
Ideal chemistry: Se
Locality: Grants Uranium District, Valencia County, New Mexico, USA
Source: University of Arizona Mineral Museum
Description: Mass of gray acicular crystals
Measured chemistry: Se
Raman shift (cm-1)	intensity
135.583	0
138.958	1.01328
142.332	1.06622
145.707	1.37103
149.082	1.09364
152.457	1.61513
155.832	1.30423
159.207	0.973089
162.581	0.266313
165.956	0.401643
169.331	0.637932
172.706	0.640972
176.081	0.477211
179.455	0.543036
182.83	0.62654
186.205	1.04599
189.58	0.374296
192.955	0.56884
196.329	0.730719
199.704	0.338513
203.079	0.105376
206.454	0.753928
209.829	1.48736
213.204	1.89843
216.578	4.87774
219.953	7.33994
223.328	9.80261
226.703	13.359
230.078	18.8514
233.452	24.5547
236.827	18.546
240.202	10.9351
243.577	3.74295
246.952	1.19995
250.327	0.974763
253.701	0.921176
257.076	0.037347
260.451	0.555418
263.826	0.927327
267.201	0.232589
270.575	0.384829
273.95	0.240614
277.325	0.265808
280.7	0.122255
284.075	0.167746
287.45	0.571527
290.825	0.136108
294.199	0.014026
297.574	0.113154
300.949	0.288456
304.324	0.38872
307.699	0.414606
311.073	0.771308
314.448	0.844717
317.823	0.517315
321.198	0.399612
324.573	0.333239
327.947	0.524325
331.322	0.258864
334.697	0.633629
338.072	0.642532
341.447	1.25982
344.822	0.979131
348.196	0.681482
351.571	0.860314
354.946	1.2957
358.321	0.369201
361.696	0.435412
365.07	1.09586
368.445	0.518989
371.82	0.694423
375.195	0.593102
378.57	0.18753
381.945	0.028275
385.32	0.363918
388.694	0.556952
392.069	0.608977
395.444	0.128566
398.819	0.136975
402.194	0.23742
405.568	0.613793
408.943	0.280161
412.318	0.406559
415.693	0.403308
419.068	0.333294
422.442	0.651226
425.817	1.18809
429.192	1.13327
432.567	0.88844
435.942	1.61181
439.317	1.59095
442.691	1.53869
446.066	1.21471
449.441	1.71555
452.816	1.44145
456.191	1.36971
459.565	1.26892
462.94	1.58436
466.315	1.12575
469.69	0.986528
473.065	0.285958
476.44	0.457643
479.815	0.538217
483.189	1.03542
486.564	0.295994
489.939	0.229691
493.314	0.139729
496.688	0.430489
500.063	0.391292
503.438	0.636437
506.813	0.003694
510.188	0.334769
513.563	0.354387
516.938	0.192863
520.312	0.355963
523.687	0.351175
527.062	0.221967
530.437	0.207123
533.812	0.957854
537.186	0.023145
540.561	0.465569
543.936	0.521731
547.311	0.585555
550.686	0.581432
554.061	0.243637
557.435	0.066761
560.81	0.335132
564.185	0.431422
567.56	0.762254
570.935	0.001965
574.309	0.671416
577.684	0.05862
581.059	0.560037
584.434	0.391197
587.809	0.062813
591.183	0.52324
594.558	0.39119
597.933	0.198403
601.308	0.082183
604.683	0.24323
608.058	0.759084
611.433	0.291966
614.807	0.221353
618.182	0.09844
621.557	0.412021
624.932	0.090685
628.307	0.102612
631.681	0.183863
635.056	0.024145
638.431	0.240894
641.806	0.393771
645.181	0.667346
648.556	0.615992
651.93	0.119009
655.305	0.091423
658.68	0.235565
662.055	0.314308
665.43	0.145533
668.804	0.443348
672.179	0.399282
675.554	0.602396
678.929	0.242073
682.304	0.499247
685.678	0.036794
689.053	0.574928
692.428	0.080046
695.803	0.22981
699.178	0.49004
702.553	0.184781
705.927	0.371899
709.302	0.050373
712.677	0.301597
716.052	0.222786
719.427	0.128345
722.802	0.109129
726.176	0.383456
729.551	0.063115
732.926	0.351076
736.301	0.390763
739.676	0.083452
743.051	0.284621
746.425	0.073305
749.8	0.326961
753.175	0.347547
756.55	0.079602
759.925	0.099
763.299	0.538068
766.674	0.650238
770.049	0.275845
773.424	0.524256
776.799	0.141195
780.173	0.316546
783.548	0.383417
786.923	0.107723
790.298	0.110046
793.673	0.214327
797.048	0.486149
800.422	0.057705
803.797	0.102551
807.172	0.408932
810.547	0.378892
813.922	0.252085
817.297	0.285028
820.671	0.559564
824.046	0.192419
827.421	0.710671
830.796	0.029003
834.171	0.665147
837.545	0.852832
840.92	0.004288
844.295	0.265783
847.67	0.527734
851.045	0.513103
854.42	0.099161
857.794	0.686315
861.169	0.086495
864.544	0.439863
867.919	0.272969
871.294	0.43034
874.668	0.089538
878.043	0.296408
881.418	0.498542
884.793	0.13974
888.168	0.601137
891.543	0.22451
894.917	0.044474
898.292	0.23828
901.667	0.226903
905.042	0.12798
908.417	0.488462
911.792	0.417843
915.166	0.413512
918.541	0.318964
921.916	0.644212
925.291	0.453582
928.666	0.580337
932.04	0.539646
935.415	0.492158
938.79	0.185385
942.165	0.103366
945.54	0.321939
948.915	0.266657
952.289	0.443385
955.664	0.403575
959.039	0.487281
962.414	0.34291
965.789	0.082176
969.163	0.395988
972.538	0.754506
975.913	0.170952
979.288	0.221714
982.663	0.399789
986.038	0.12256
989.412	0.500986
992.787	0.214295
996.162	0.445776
999.537	0.115721
1002.91	0.404119
1006.29	0.121441
1009.66	0.128009
1013.04	0.549297
1016.41	0.022674
1019.79	0.636515
1023.16	0.11412
1026.54	0.378997
1029.91	0.378487
1033.29	0.228122
1036.66	0.079483
1040.04	0.56867
1043.41	0.102705
1046.78	0.118974
1050.16	0.255029
1053.53	0.477355
1056.91	0.482759
1060.28	1.03241
1063.66	0.57606
1067.03	0.545757
1070.41	0.169579
1073.78	0.329312
1077.16	0.929431
1080.53	0.414009
1083.91	0.137572
1087.28	0.481939
1090.66	0.954513
1094.03	0.747835
1097.41	0.50762
1100.78	0.79327
1104.16	0.70682
1107.53	0.099157
1110.91	0.57116
1114.28	0.281595
1117.66	0.729601
1121.03	0.739566
1124.4	0.481136
1127.78	0.902626
1131.15	0.794139
1134.53	0.219875
1137.9	0.026465
1141.28	0.286009
1144.65	0.085144
1148.03	0.347006
1151.4	0.048962
1154.78	0.796515
1158.15	0.225478
1161.53	0.728461
1164.9	0.464086
1168.28	0.478995
1171.65	0.52748
1175.03	0.381055
1178.4	0.611626
1181.78	0.820747
1185.15	0.294369
1188.53	0.475121
1191.9	0.824851
1195.28	0.474312
1198.65	0.673658
1202.03	0.364969
1205.4	0.295952
1208.78	0.364484
1212.15	0.708536
1215.53	0.009252
1218.9	0.113253
1222.28	0.594024
1225.65	0.543105
1229.03	0.314057
1232.4	0.879712
1235.77	0.436235
1239.15	0.165512
1242.52	0.38545
1245.9	0.354002
1249.27	0.408561
1252.65	0.184984
1256.02	0.147254
1259.4	0.346257
1262.77	0.525254
1266.15	0.639958
1269.52	0.805308
1272.9	0.206091
1276.27	0.449438
1279.65	0.358939
1283.02	0.760148
1286.4	0.0479
1289.77	0.924571
1293.15	0.880445
1296.52	0.520474
1299.9	0.55841
