Measurement: Raman, 532 nm, unoriented, Raman Data Processed
Mineral: Selenium
Rruff sample: R050656
Ideal chemistry: Se
Locality: Poison Creek, Valencia County, New Mexico, USA
Source: University of Arizona Mineral Museum
Description: Gray metallic acicular crystals
Measured chemistry: Se
Raman shift (cm-1)	intensity
142.332	0
145.707	0.382919
149.082	1.79343
152.457	3.57714
155.832	5.64378
159.207	6.05481
162.581	7.19246
165.956	6.80676
169.331	2.33818
172.706	5.26072
176.081	2.23213
179.455	5.39389
182.83	5.01993
186.205	1.1202
189.58	1.70506
192.955	5.72235
196.329	9.23548
199.704	3.91878
203.079	4.2553
206.454	10.6235
209.829	0.199726
213.204	7.75243
216.578	14.9914
219.953	28.2781
223.328	36.2132
226.703	40.7199
230.078	69.2882
233.452	92.7659
236.827	74.0049
240.202	32.4125
243.577	12.4057
246.952	3.74251
250.327	11.0707
253.701	5.55519
257.076	10.4558
260.451	5.50858
263.826	6.70505
267.201	5.47451
270.575	9.53825
273.95	6.25697
277.325	8.032
280.7	8.74862
284.075	7.52848
287.45	6.12333
290.825	3.95998
294.199	2.82779
297.574	5.05141
300.949	0.543383
304.324	3.64255
307.699	5.9435
311.073	5.91413
314.448	3.42397
317.823	6.0175
321.198	4.62618
324.573	11.5786
327.947	5.73703
331.322	6.21868
334.697	10.8467
338.072	4.72682
341.447	3.59076
344.822	8.60001
348.196	5.40727
351.571	5.8096
354.946	7.85319
358.321	4.77062
361.696	7.33989
365.07	1.91217
368.445	4.3587
371.82	3.4856
375.195	1.35705
378.57	0.170622
381.945	4.15587
385.32	1.35279
388.694	6.19105
392.069	3.20266
395.444	0.099411
398.819	0.972385
402.194	1.26703
405.568	2.83536
408.943	2.0065
412.318	3.44247
415.693	2.38587
419.068	5.84832
422.442	5.18711
425.817	4.0242
429.192	5.44548
432.567	0.882345
435.942	0.42573
439.317	2.30972
442.691	5.06724
446.066	0.947105
449.441	3.93373
452.816	5.18628
456.191	0.313332
459.565	2.71644
462.94	3.20339
466.315	3.56057
469.69	2.00934
473.065	2.74373
476.44	3.58803
479.815	2.67586
483.189	3.21801
486.564	1.88143
489.939	0.174538
493.314	5.56226
496.688	2.45066
500.063	3.66306
503.438	0.787451
506.813	2.65675
510.188	0.918135
513.563	1.89677
516.938	4.07027
520.312	0.598038
523.687	0.705574
527.062	1.29796
530.437	1.50892
533.812	3.5821
537.186	4.8382
540.561	2.35108
543.936	3.04348
547.311	3.78305
550.686	4.89076
554.061	3.55389
557.435	2.47706
560.81	3.15662
564.185	2.40342
567.56	2.79944
570.935	2.72081
574.309	4.03027
577.684	1.98153
581.059	1.50222
584.434	1.0971
587.809	3.30716
591.183	2.32302
594.558	6.6367
597.933	3.94317
601.308	2.22789
604.683	2.61597
608.058	2.68407
611.433	2.43624
614.807	0.13349
618.182	2.56299
621.557	1.96572
624.932	1.25124
628.307	3.28424
631.681	4.84197
635.056	2.24612
638.431	2.40352
641.806	4.41247
645.181	0.604231
648.556	4.06418
651.93	2.01288
655.305	0.979229
658.68	4.02652
662.055	1.94589
665.43	5.34526
668.804	5.25333
672.179	3.70492
675.554	4.2279
678.929	3.87991
682.304	2.81506
685.678	5.3366
689.053	5.98679
692.428	3.54463
695.803	1.40526
699.178	5.29788
702.553	6.65212
705.927	4.08732
709.302	2.73028
712.677	0.185459
716.052	4.41617
719.427	5.11163
722.802	5.08681
726.176	0.522116
729.551	4.82229
732.926	5.38375
736.301	4.09575
739.676	2.83788
743.051	5.86985
746.425	4.65418
749.8	4.84334
753.175	4.91512
756.55	5.86975
759.925	2.45014
763.299	2.15846
766.674	4.29643
770.049	0.433657
773.424	3.15288
776.799	0.084711
780.173	3.61302
783.548	2.4227
786.923	1.71914
790.298	0.29073
793.673	4.00298
797.048	5.89691
800.422	1.13506
803.797	3.13404
807.172	0.505484
810.547	1.27699
813.922	2.13331
817.297	4.53392
820.671	1.90407
824.046	2.99594
827.421	3.02713
830.796	4.84118
834.171	0.594967
837.545	2.77686
840.92	2.38552
844.295	3.05908
847.67	1.91956
851.045	3.56933
854.42	2.17324
857.794	2.9845
861.169	3.23094
864.544	1.50009
867.919	4.29871
871.294	1.44688
874.668	6.44085
878.043	3.30879
881.418	0.83017
884.793	2.33203
888.168	3.36424
891.543	1.89066
894.917	3.1428
898.292	3.5748
901.667	2.64796
905.042	3.42209
908.417	1.61537
911.792	1.95488
915.166	1.45607
918.541	2.76109
921.916	1.23714
925.291	4.10051
928.666	3.1645
932.04	1.7985
935.415	0.675013
938.79	0.94915
942.165	1.07199
945.54	6.32017
948.915	5.27597
952.289	1.07232
955.664	3.93485
959.039	2.14812
962.414	4.26204
965.789	3.46197
969.163	1.717
972.538	0.656002
975.913	2.38023
979.288	1.54406
982.663	1.98852
986.038	2.62553
989.412	3.28988
992.787	2.86157
996.162	2.34215
999.537	5.51081
1002.91	4.42267
1006.29	4.4295
1009.66	2.86362
1013.04	2.63209
1016.41	2.68346
1019.79	7.43769
1023.16	2.93044
1026.54	4.67642
1029.91	4.68893
1033.29	4.70532
1036.66	3.25297
1040.04	2.15196
1043.41	3.74092
1046.78	1.06499
1050.16	2.77906
1053.53	1.52138
1056.91	6.12853
1060.28	6.03333
1063.66	2.71619
1067.03	1.29584
1070.41	0.585974
1073.78	2.92939
1077.16	2.20386
1080.53	2.79151
1083.91	2.26363
1087.28	2.48872
1090.66	4.15356
1094.03	0.916943
1097.41	5.56751
1100.78	5.14626
1104.16	5.74665
1107.53	1.7675
1110.91	3.95796
1114.28	1.70141
1117.66	3.31651
1121.03	2.12728
1124.4	3.28341
1127.78	1.37798
1131.15	0.14436
1134.53	3.5426
1137.9	0.251339
1141.28	6.22332
1144.65	2.37301
1148.03	1.55922
1151.4	3.35322
1154.78	3.08669
1158.15	2.50579
1161.53	2.67506
1164.9	2.34727
1168.28	4.90553
1171.65	4.72531
1175.03	2.91423
1178.4	4.52597
1181.78	6.84826
1185.15	5.34225
1188.53	5.56863
1191.9	1.19687
1195.28	1.81177
1198.65	4.17659
1202.03	2.34426
1205.4	7.04994
1208.78	3.90997
1212.15	0.106552
1215.53	2.34111
1218.9	3.21265
1222.28	6.13944
1225.65	2.671
1229.03	0.945457
1232.4	4.28216
1235.77	3.79508
1239.15	4.56819
1242.52	0.119808
1245.9	4.13865
1249.27	4.64457
1252.65	3.51021
1256.02	6.26637
1259.4	1.39951
1262.77	4.34175
1266.15	1.86039
1269.52	3.62537
1272.9	2.02885
1276.27	1.20289
1279.65	4.54508
1283.02	1.90928
1286.4	4.20068
1289.77	2.30412
1293.15	0.293621
1296.52	3.2223
1299.9	0.171516
