Measurement: Raman, 532 nm, unoriented, Raman Data Processed
Mineral: Seligmannite
Rruff sample: R100189
Ideal chemistry: Cu^1+^Pb^2+^As^3+^S^2-^_3_
Locality: Palomo mine, Huancavelica Department, Peru
Source: William W. Pinch
Description: Black short prismatic crystals on galena associated with quartz and sphalerite
Raman shift (cm-1)	intensity
170.584	0
173.477	2.81989
176.37	0.743614
179.263	0.578072
182.155	1.58108
185.048	2.69592
187.941	7.07061
190.833	10.4565
193.726	16.5586
196.619	20.3711
199.512	29.2522
202.404	27.2103
205.297	32.6557
208.19	19.2638
211.082	20.5047
213.975	16.4873
216.868	11.6616
219.761	9.71767
222.653	3.64273
225.546	0.104698
228.439	0.347603
231.331	4.94359
234.224	2.5481
237.117	1.46545
240.009	0.604698
242.902	3.15747
245.795	0.731117
248.688	0.833191
251.58	0.388023
254.473	0.282402
257.366	1.58555
260.258	2.18682
263.151	0.081947
266.044	1.24088
268.936	5.33052
271.829	4.42809
274.722	6.08565
277.615	5.19764
280.507	4.56853
283.4	5.35514
286.293	11.4119
289.185	9.23546
292.078	9.48766
294.971	11.6197
297.863	14.8099
300.756	17.747
303.649	20.5846
306.541	15.4923
309.434	14.94
312.327	16.2431
315.22	15.5485
318.112	19.7155
321.005	19.2417
323.898	18.5598
326.791	14.8022
329.683	19.5993
332.576	20.1098
335.469	23.0547
338.361	20.9129
341.254	13.1929
344.147	12.0906
347.039	8.87318
349.932	10.0973
352.825	8.33711
355.717	11.1252
358.61	19.6426
361.503	19.5138
364.396	14.5544
367.288	8.79625
370.181	3.89165
373.074	5.87461
375.966	2.2717
378.859	2.22294
381.752	1.51259
384.644	1.26144
387.537	1.74324
390.43	0.668224
393.323	2.62187
396.215	3.83425
399.108	1.239
402.001	3.65611
404.894	1.58231
407.786	1.51558
410.679	0.522617
413.572	1.60835
416.464	2.57267
419.357	1.89725
422.25	0.431934
425.142	4.67997
428.035	3.46347
430.928	3.44178
433.82	4.18164
436.713	3.42942
439.606	1.27496
442.499	1.54995
445.391	0.176495
448.284	5.04388
451.177	3.16259
454.069	2.12232
456.962	4.88483
459.855	1.47358
462.748	2.37067
465.64	0.147514
468.533	4.62133
471.426	3.25707
474.318	2.53321
477.211	3.82011
480.104	2.49657
482.996	1.55003
485.889	2.92726
488.782	2.35615
491.675	3.84105
494.567	3.06479
497.46	3.44701
500.353	1.51368
503.245	0.12323
506.138	3.85121
509.031	1.00695
511.923	1.94104
514.816	4.77529
517.709	0.923069
520.602	1.07905
523.494	3.08199
526.387	3.33993
529.28	2.52078
532.172	0.599052
535.065	3.28279
537.958	0.049164
540.851	4.15608
543.743	0.123138
546.636	3.72107
549.529	2.27045
552.421	6.49081
555.314	2.2069
558.207	2.98228
561.099	2.63531
563.992	2.56245
566.885	0.213226
569.778	2.15092
572.67	4.37341
575.563	3.75127
578.456	1.03305
581.348	1.09503
584.241	1.99892
587.134	0.096378
590.027	3.71041
592.919	2.62998
595.812	6.1684
598.705	1.46438
601.597	1.26138
604.49	3.40388
607.383	3.14038
610.275	2.50539
613.168	2.07108
616.061	3.8046
618.953	1.2263
621.846	0.927441
624.739	4.33144
627.632	3.40257
630.524	2.93901
633.417	2.87978
636.31	2.95274
639.202	4.41604
642.095	4.24128
644.988	3.92749
647.881	1.35379
650.773	3.70845
653.666	3.05024
656.559	3.06176
659.451	3.64259
662.344	3.87682
665.237	4.8111
668.13	0.572063
671.022	3.25847
673.915	2.75687
676.808	1.25426
679.7	4.1567
682.593	0.817554
685.486	2.68991
688.378	2.82133
691.271	5.093
694.164	3.37192
697.057	1.49504
699.949	0.78986
702.842	2.31748
705.735	2.42877
708.627	3.10959
711.52	2.09883
714.413	0.701408
717.305	3.33363
720.198	0.801376
723.091	0.425533
725.984	2.35033
728.876	4.02391
731.769	2.70846
734.662	0.084419
737.554	3.40332
740.447	1.77029
743.34	0.693661
746.232	1.1167
749.125	3.83591
752.018	2.18624
754.91	3.84413
757.803	2.46825
760.696	2.5075
763.589	4.17104
766.481	3.28873
769.374	1.39935
772.267	1.54351
775.159	2.51373
778.052	1.22911
780.945	2.53751
783.838	4.81243
786.73	3.03498
789.623	1.35265
792.516	3.74143
795.408	3.76321
798.301	0.636662
801.194	3.18399
804.087	0.042709
806.979	4.78749
809.872	2.30862
812.765	5.46663
815.657	3.92771
818.55	1.50379
821.443	3.63566
824.335	4.06177
827.228	0.860168
830.121	1.29758
833.014	1.70658
835.906	3.26261
838.799	2.44596
841.692	3.40354
844.584	0.706169
847.477	3.49106
850.37	5.23377
853.263	4.45664
856.155	2.58935
859.048	4.87378
861.941	3.89142
864.833	3.76058
867.726	4.60631
870.619	1.86059
873.511	2.24851
876.404	0.856884
879.297	2.70245
882.189	2.9597
885.082	3.2337
887.975	1.4556
890.868	0.940422
893.76	2.88715
896.653	3.24385
899.546	3.53867
902.438	0.887516
905.331	0.805973
908.224	4.37874
911.116	2.56813
914.009	3.9034
916.902	2.90602
919.795	3.40988
922.687	2.87471
925.58	3.12079
928.473	3.64366
931.365	2.95134
934.258	4.3127
937.151	1.00391
940.044	1.88401
942.936	1.86905
945.829	2.17075
948.722	2.52806
951.614	1.51342
954.507	0.61652
957.4	3.5797
960.293	3.64462
963.185	0.521355
966.078	2.39466
968.971	2.06183
971.863	3.53419
974.756	3.01629
977.649	3.786
980.541	3.66612
983.434	3.79309
986.327	1.07841
989.22	2.08267
992.112	3.2156
995.005	0.822853
997.898	3.24705
1000.79	3.98614
1003.68	3.68924
1006.58	0.978207
1009.47	5.8088
1012.36	0.528511
1015.25	3.29053
1018.15	0.644627
1021.04	0.916725
1023.93	0.922615
1026.83	2.6501
1029.72	5.53164
1032.61	0.822102
1035.5	1.60162
1038.4	4.61916
1041.29	2.15293
1044.18	1.6056
1047.07	0.832836
1049.97	2.55675
1052.86	3.40401
1055.75	2.05133
1058.64	2.65357
1061.54	0.462055
1064.43	3.48574
1067.32	0.803123
1070.21	1.95145
1073.11	0.41515
1076	4.08133
1078.89	2.64317
1081.79	2.71005
1084.68	1.4356
1087.57	4.36057
1090.46	1.44708
1093.36	3.76311
1096.25	1.56284
1099.14	0.270645
1102.04	1.72153
1104.93	3.13307
1107.82	1.92342
1110.71	1.33519
1113.61	1.19987
1116.5	4.27869
1119.39	2.06073
1122.28	4.49932
1125.18	5.09987
1128.07	0.174194
1130.96	1.7987
1133.86	1.72961
1136.75	1.8205
1139.64	0.489494
1142.53	4.31145
1145.43	1.72195
1148.32	2.77607
1151.21	3.59488
1154.1	1.79374
1157	3.01866
1159.89	4.20705
1162.78	0.439922
1165.67	1.39118
1168.57	2.06535
1171.46	4.03442
1174.35	3.27661
1177.24	3.70227
1180.14	1.20386
1183.03	1.95234
1185.92	2.83734
1188.82	2.59023
1191.71	3.9595
1194.6	0.414734
1197.49	3.92824
1200.39	1.63348
1203.28	2.44383
1206.17	1.60906
1209.07	2.1571
1211.96	1.17456
1214.85	0.947491
1217.74	2.73535
1220.64	1.15606
1223.53	0.220737
1226.42	0.896748
1229.31	2.93479
1232.21	1.69826
1235.1	0.575737
1237.99	4.18792
1240.88	2.32928
1243.78	6.07851
1246.67	2.93129
1249.56	0.906681
1252.45	1.73389
1255.35	5.11927
1258.24	1.72645
1261.13	4.11971
1264.03	1.23655
1266.92	2.64166
1269.81	3.48594
1272.7	1.43273
1275.6	3.9365
1278.49	2.7855
1281.38	1.40727
1284.28	5.26052
1287.17	0.873615
1290.06	3.81337
1292.95	1.81804
1295.85	2.90461
1298.74	2.67608
1301.63	0.377094
