Measurement: Raman, 532 nm, unoriented, Raman Data Processed
Mineral: Senarmontite
Rruff sample: R060002
Ideal chemistry: Sb^3+^_2_O_3_
Locality: Chenlong, Xin Yi County, Guizhou Province, China
Source: Ken Roberts
Description: Glassy coating over an altered stibnite crystal, mixed with cervantite
Measured chemistry: core and light rim: (Sb_1.99_As_0.01_)_Î£=2_O_3_
Raman shift (cm-1)	intensity
153.189	0
156.081	9.62329
158.974	8.80981
161.867	39.5471
164.76	76.8911
167.652	134.362
170.545	192.983
173.438	256.603
176.33	345.276
179.223	454.507
182.116	549.26
185.008	645.267
187.901	735.619
190.794	782.851
193.686	814.249
196.579	758.593
199.472	668.47
202.365	543.039
205.257	403.377
208.15	300.24
211.043	223.237
213.935	165.09
216.828	120.147
219.721	86.5676
222.613	50.3994
225.506	28.0891
228.399	12.0994
231.292	2.34106
234.184	9.37817
237.077	1.80176
239.97	0.856934
242.862	5.27417
245.755	17.052
248.648	29.1396
251.541	38.7051
254.433	32.1941
257.326	35.9377
260.219	39.2134
263.111	42.894
266.004	58.2849
268.897	53.6143
271.789	46.5601
274.682	43.2353
277.575	44.4021
280.467	30.4895
283.36	37.5803
286.253	30.1387
289.146	22.1921
292.038	23.5825
294.931	19.5974
297.824	1.51392
300.716	1.51587
303.609	1.90332
306.502	4.03174
309.394	1.76856
312.287	4.43848
315.18	0.523438
318.073	2.21728
320.965	5.65039
323.858	5.84814
326.751	7.36646
329.643	7.50854
332.536	3.94727
335.429	4.41309
338.322	9.05566
341.214	8.95679
344.107	20.4106
347	24.852
349.892	29.648
352.785	33.918
355.678	24.4814
358.57	30.6577
361.463	29.511
364.356	29.4089
367.248	39.7227
370.141	40.1094
373.034	32.0227
375.927	39.5154
378.819	57.1033
381.712	73.6501
384.605	95.3415
387.497	110.867
390.39	135.671
393.283	170.294
396.175	195.036
399.068	192.423
401.961	189.537
404.853	165.213
407.746	153.007
410.639	134.314
413.532	123.662
416.424	116.324
419.317	111.562
422.21	110.716
425.102	114.377
427.995	110.684
430.888	110.121
433.781	106.086
436.673	113.586
439.566	113.167
442.459	123.701
445.351	126.654
448.244	128.333
451.137	132.461
454.029	128.511
456.922	116.659
459.815	104.41
462.708	89.4158
465.6	65.313
468.493	47.8784
471.386	33.7673
474.278	17.8494
477.171	11.4421
480.064	8.57104
482.957	3.97778
485.849	5.52588
488.742	1.78076
491.635	1.93433
494.527	4.14941
497.42	12.3584
500.313	1.94287
503.205	8.20727
506.098	2.79175
508.991	3.36206
511.884	5.71362
514.776	2.28711
517.669	5.7937
520.562	8.71387
523.454	20.5129
526.347	9.0415
529.24	11.5369
532.132	10.1472
535.025	16.3686
537.918	27.0603
540.81	6.48682
543.703	9.25073
546.596	3.71265
549.489	1.66919
552.381	6.44849
555.274	0.777832
558.167	11.5142
561.059	6.3208
563.952	6.67798
566.845	3.32495
569.737	10.6262
572.63	6.68994
575.523	2.77393
578.415	1.04883
581.308	14.6751
584.201	6.1687
587.094	9.5271
589.986	21.8933
592.879	10.772
595.772	3.55908
598.664	10.9238
601.557	18.5249
604.45	31.522
607.342	31.2512
610.235	33.97
613.128	35.2754
616.021	38.3015
618.913	46.6172
621.806	56.8582
624.699	72.2515
627.591	100.605
630.484	109.919
633.377	113.097
636.269	122.476
639.162	137.025
642.055	141.698
644.948	143.688
647.84	139.82
650.733	130.411
653.626	121.151
656.518	108.64
659.411	102.55
662.304	90.6943
665.197	73.9697
668.089	68.0957
670.982	52.1067
673.875	27.4529
676.767	28.3669
679.66	9.39624
682.553	0.437012
685.445	7.51685
688.338	1.28589
691.231	4.58106
694.124	6.0459
697.016	6.38696
699.909	8.59375
702.802	13.1152
705.694	17.3806
708.587	19.9868
711.48	32.0903
714.372	28.2661
717.265	39.1016
720.158	33.0752
723.051	39.4622
725.943	50.9546
728.836	41.718
731.729	51.8064
734.621	57.8137
737.514	62.7456
740.407	62.0176
743.299	58.5898
746.192	58.0447
749.085	65.3731
751.977	63.5364
754.87	73.9529
757.763	60.3215
760.656	57.8118
763.548	64.0173
766.441	70.4812
769.334	65.479
772.226	61.7825
775.119	57.8086
778.012	59.9094
780.904	53.5449
783.797	62.0293
786.69	47.7502
789.583	29.0945
792.475	26.4932
795.368	27.5632
798.261	27.3892
801.153	17.5801
804.046	14.9805
806.939	7.55884
809.832	14.1082
812.724	13.1335
815.617	8.00708
818.51	1.76758
821.402	0.771973
824.295	0.157715
827.188	2.38257
830.08	1.52148
832.973	5.58276
835.866	0.754883
838.759	4.92481
841.651	7.42017
844.544	13.9062
847.437	7.99121
850.329	1.04907
853.222	0.258545
856.115	4.05835
859.007	17.002
861.9	18.1731
864.793	17.3049
867.686	17.9968
870.578	16.4485
873.471	19.72
876.364	15.3462
879.256	6.89136
882.149	6.73779
885.042	15.668
887.934	15.5452
890.827	15.812
893.72	6.90625
896.612	14.0806
899.505	23.0623
902.398	27.0049
905.291	23.3015
908.183	19.7141
911.076	18.9578
913.969	12.7358
916.861	18.0359
919.754	25.6426
922.647	19.9924
925.539	10.7339
928.432	7.09668
931.325	15.7842
934.218	13.8899
937.11	9.80884
940.003	11.5303
942.896	6.84766
945.788	13.5779
948.681	14.969
951.574	4.48755
954.466	10.7441
957.359	10.1201
960.252	4.98438
963.144	2.24048
966.037	0.54248
968.93	9.03735
971.823	9.86157
974.715	3.76123
977.608	5.84985
980.501	12.2383
983.393	24.2895
986.286	5.8479
989.179	11.845
992.072	3.09741
994.964	8.84277
997.857	19.3879
1000.75	4.2312
1003.64	12.5837
1006.53	2.8147
1009.43	12.0984
1012.32	11.8816
1015.21	10.252
1018.11	14.5662
1021	17.6467
1023.89	15.9973
1026.78	13.3857
1029.68	11.3694
1032.57	6.79688
1035.46	13.176
1038.36	11.6345
1041.25	9.46851
1044.14	6.6167
1047.03	10.6284
1049.93	6.98828
1052.82	5.7417
1055.71	4.48291
1058.6	8.82935
1061.5	0.013672
1064.39	2.15332
1067.28	3.34522
1070.17	9.36499
1073.07	12.2339
1075.96	8.90747
1078.85	17.0044
1081.74	6.89453
1084.64	2.09497
1087.53	11.9053
1090.42	15.2073
1093.32	0.57251
1096.21	0.154053
1099.1	1.29663
1101.99	2.88062
1104.89	2.47974
1107.78	8.9043
1110.67	10.0796
1113.57	7.70459
1116.46	7.47461
1119.35	0.937012
1122.24	11.1221
1125.14	18.7646
1128.03	13.9404
1130.92	14.0903
1133.81	6.38086
1136.71	11.4094
1139.6	10.7515
1142.49	17.792
1145.38	17.5193
1148.28	26.7661
1151.17	17.8704
1154.06	14.1018
1156.95	11.052
1159.85	6.61035
1162.74	6.79565
1165.63	26.3438
1168.53	11.5764
1171.42	6.40454
1174.31	18.6545
1177.2	1.12061
1180.1	3.5144
1182.99	9.84619
1185.88	5.3291
1188.78	7.91675
1191.67	4.08057
1194.56	6.05469
1197.45	1.14185
1200.35	1.46509
1203.24	4.27905
1206.13	4.45923
1209.02	7.71167
1211.92	0.675781
1214.81	12.0041
1217.7	26.8814
1220.6	25.293
1223.49	26.0693
1226.38	17.0754
1229.27	16.75
1232.17	7.29956
1235.06	14.9871
1237.95	1.84936
1240.84	5.29932
1243.74	11.6011
1246.63	18.7954
1249.52	25.9646
1252.41	14.7646
1255.31	7.75293
1258.2	12.6504
1261.09	20.5317
1263.98	20.1572
1266.88	18.5645
1269.77	6.84424
1272.66	15.2832
1275.56	12.7842
1278.45	7.04346
1281.34	13.6753
1284.23	20.3433
1287.13	11.5718
1290.02	14.3057
1292.91	12.1836
1295.81	11.9492
1298.7	0.49707
1301.59	8.87549
1304.48	4.08106
