Measurement: Raman, 532 nm, unoriented, Raman Data Processed
Mineral: Serendibite
Rruff sample: R070622
Ideal chemistry: Ca_4_(Mg_6_Al_6_)O_4_[Si_6_B_3_Al_3_O_36_]
Locality: Sri Lanka
Source: Shinichi Kihara
Description: Deep blue-green vitreous crystals with conchoidal fracture.
Raman shift (cm-1)	intensity
131.718	0
135.092	684.069
138.467	395.857
141.842	410.627
145.217	556.509
148.592	789.568
151.966	857.124
155.341	1021.28
158.716	724.352
162.091	406.17
165.466	198.559
168.84	226.009
172.215	216.131
175.59	177.383
178.965	107.477
182.34	98.8272
185.715	70.2842
189.089	34.1797
192.464	8.4043
195.839	25.085
199.214	63.7676
202.589	140.502
205.963	171.02
209.338	107.401
212.713	30.458
216.088	259.086
219.463	267.935
222.838	445.598
226.212	479.622
229.587	490.376
232.962	290.806
236.337	303.035
239.712	286.141
243.086	305.546
246.461	225.261
249.836	50.9199
253.211	154.225
256.586	57.2969
259.96	74.2568
263.335	76.5898
266.71	296.039
270.085	461.536
273.46	747.489
276.834	708.285
280.209	630.762
283.584	723.572
286.959	768.873
290.334	886.106
293.709	1190.32
297.083	1329.23
300.458	1487.06
303.833	1328.42
307.208	1194.57
310.583	960.862
313.957	774.122
317.332	460.69
320.707	367.098
324.082	236.879
327.457	244.469
330.832	4.48438
334.206	8.16211
337.581	16.3984
340.956	14.2461
344.331	148.14
347.706	354.531
351.08	426.01
354.455	454.788
357.83	607.723
361.205	516.458
364.58	503.512
367.954	442.782
371.329	347.448
374.704	263.185
378.079	168.714
381.454	310.781
384.829	377.897
388.203	444.514
391.578	547.058
394.953	545.067
398.328	690.943
401.703	767.699
405.077	672.868
408.452	780.107
411.827	655.267
415.202	639.832
418.577	827.051
421.952	825.438
425.326	776.807
428.701	746.292
432.076	525.078
435.451	362.638
438.826	238.674
442.2	316.123
445.575	338.971
448.95	575.664
452.325	632.693
455.7	794.625
459.075	934.731
462.449	1048.46
465.824	1132.06
469.199	975.741
472.574	667.36
475.949	490.272
479.323	167.199
482.698	36.5986
486.073	110.881
489.448	5.73633
492.823	5.97656
496.197	0.146484
499.572	66.9883
502.947	189.94
506.322	214.727
509.697	392.288
513.072	562.122
516.446	716.866
519.821	866.127
523.196	945.773
526.571	909.15
529.946	711.418
533.32	495.65
536.695	328.452
540.07	315.092
543.445	211.65
546.82	64.9287
550.194	259.695
553.569	292.498
556.944	499.75
560.319	575.326
563.694	597.926
567.068	648.906
570.443	606.977
573.818	558.909
577.193	404.506
580.568	323.733
583.943	339.987
587.317	292.991
590.692	128.718
594.067	197.323
597.442	95.8008
600.817	25.8262
604.192	110.916
607.566	49.9688
610.941	177.314
614.316	245.819
617.691	535.775
621.066	672.481
624.44	695.274
627.815	662.938
631.19	476.033
634.565	316.858
637.94	193.212
641.314	113.699
644.689	150.981
648.064	223.074
651.439	53.0742
654.814	437.926
658.188	235.158
661.563	335.295
664.938	582.921
668.313	401.114
671.688	349.879
675.063	286.483
678.437	249.298
681.812	177.69
685.187	67.5596
688.562	25.5654
691.937	50.5635
695.312	61.5293
698.686	30.2139
702.061	30.8789
705.436	47.1494
708.811	77.4512
712.186	215.571
715.56	85.9023
718.935	195.805
722.31	358.907
725.685	435.917
729.06	568.023
732.434	684.593
735.809	795.446
739.184	891.984
742.559	1109.21
745.934	1116.16
749.308	1182.42
752.683	1150.94
756.058	1164.87
759.433	1122.2
762.808	1041.81
766.183	896.157
769.557	588.242
772.932	654.658
776.307	462.036
779.682	459.385
783.057	379.981
786.431	389.549
789.806	480.234
793.181	427.754
796.556	455.911
799.931	410.741
803.306	346.639
806.68	345.016
810.055	246.363
813.43	154.752
816.805	146.115
820.18	90.7002
823.554	59.2793
826.929	1.66211
830.304	60.9228
833.679	76.0371
837.054	49.1768
840.428	39.1006
843.803	36.8027
847.178	71.0781
850.553	49.2012
853.928	136.5
857.303	186.376
860.677	167.526
864.052	406.051
867.427	523.09
870.802	591.994
874.177	724.088
877.551	786.108
880.926	807.075
884.301	651.775
887.676	926.423
891.051	875.979
894.426	470.379
897.8	545.975
901.175	516.893
904.55	422.599
907.925	375.632
911.299	290.469
914.674	250.889
918.049	211.826
921.424	259.374
924.799	353.672
928.174	75.2197
931.548	192.574
934.923	196.457
938.298	222.884
941.673	140.139
945.048	140.673
948.423	84.376
951.797	67.9853
955.172	121.073
958.547	89.0537
961.922	102.436
965.297	93.1836
968.671	191.764
972.046	342.785
975.421	350.475
978.796	332.227
982.171	482.678
985.545	498.335
988.92	554.065
992.295	298.102
995.67	245.443
999.045	177.519
1002.42	167.151
1005.79	168.598
1009.17	258.144
1012.54	158.938
1015.92	13.9131
1019.29	1.50977
1022.67	9.7334
1026.04	57.8037
1029.42	35.1953
1032.79	100.235
1036.17	230.565
1039.54	39.1895
1042.92	62.5557
1046.29	185.949
1049.67	130.644
1053.04	21.4463
1056.42	63.4375
1059.79	40.4971
1063.17	51.1523
1066.54	54.3672
1069.92	0.053711
1073.29	54.6426
1076.66	94.4414
1080.04	7.56641
1083.41	86.1025
1086.79	78.4326
1090.16	133.36
1093.54	20.8486
1096.91	8.0957
1100.29	120.567
1103.66	140.984
1107.04	34.419
1110.41	182.254
1113.79	100.391
1117.16	193.383
1120.54	188.425
1123.91	283.018
1127.29	66.2822
1130.66	157.576
1134.04	126.539
1137.41	242.78
1140.79	149.438
1144.16	201.19
1147.54	165.754
1150.91	234.099
1154.29	280.978
1157.66	291.57
1161.04	195.868
1164.41	163.363
1167.79	159.156
1171.16	95.9697
1174.54	155.394
1177.91	213.142
1181.29	201.642
1184.66	91.0332
1188.03	68.959
1191.41	75.6758
1194.78	18.4092
1198.16	73.8516
1201.53	99.0791
1204.91	118.639
1208.28	122.28
1211.66	102.587
1215.03	47.9609
1218.41	1.55566
1221.78	69.8838
1225.16	87.7891
1228.53	161.33
1231.91	52.9111
1235.28	161.863
1238.66	28.8291
1242.03	45.9893
1245.41	138.248
1248.78	147.145
1252.16	10.8105
1255.53	189.285
1258.9	20.4697
1262.28	78.5557
1265.65	12.8447
1269.03	106.607
1272.4	63.2773
1275.78	157.097
1279.15	122.074
1282.53	75.0098
1285.9	127.2
1289.28	163.523
1292.65	91.4316
1296.03	14.5596
