Measurement: Raman, 780 nm, unoriented, Raman Data Processed
Mineral: Serendibite
Rruff sample: R120069
Ideal chemistry: Ca_4_(Mg_6_Al_6_)O_4_[Si_6_B_3_Al_3_O_36_]
Locality: Mogok, Burma
Source: William W. Pinch
Description: Deep blue/purple fragment that almost appears black. Twinned by a 2-fold rotation around (010), according to single crystal X-ray diffraction.
Raman shift (cm-1)	intensity
91.1996	0
94.5744	47.3256
97.9492	30.7549
101.324	12.4173
104.699	15.821
108.074	1.94525
111.448	5.43048
114.823	9.1792
118.198	10.5364
121.573	35.6113
124.948	59.2931
128.322	108.347
131.697	174.274
135.072	179.123
138.447	90.2059
141.822	32.0618
145.197	16.3596
148.571	13.0383
151.946	24.8167
155.321	35.7262
158.696	42.7309
162.071	42.9661
165.446	34.331
168.82	25.7186
172.195	21.371
175.57	10.7359
178.945	8.91608
182.32	5.60773
185.694	1.22455
189.069	2.23395
192.444	4.51392
195.819	8.29327
199.194	9.77356
202.569	16.9702
205.943	22.3495
209.318	8.73615
212.693	4.55457
216.068	3.03906
219.442	3.31293
222.817	2.36115
226.192	5.39008
229.567	9.1095
232.942	9.01868
236.317	14.74
239.691	11.0706
243.066	13.9233
246.441	19.5136
249.816	17.8666
253.191	8.25543
256.565	7.41248
259.94	4.52063
263.315	0.45459
266.69	4.53857
270.065	0.192444
273.44	0.79834
276.814	4.57904
280.189	2.65857
283.564	4.22284
286.939	5.80493
290.314	15.3241
293.688	25.3704
297.063	39.91
300.438	57.9288
303.813	65.6616
307.188	68.0837
310.562	59.571
313.937	41.6459
317.312	29.0332
320.687	24.3517
324.062	19.7303
327.437	10.1282
330.811	6.54547
334.186	4.82001
337.561	6.93732
340.936	0.565369
344.311	3.19196
347.685	8.0636
351.06	8.35919
354.435	7.89062
357.81	12.8585
361.185	11.3261
364.56	8.5592
367.934	8.49396
371.309	5.87054
374.684	0.879028
378.059	0.83783
381.434	2.44769
384.808	1.49353
388.183	7.8313
391.558	7.46582
394.933	9.62189
398.308	8.26355
401.683	11.8466
405.057	9.93372
408.432	9.60571
411.807	5.87042
415.182	6.47546
418.557	7.10132
421.931	7.34131
425.306	4.44434
428.681	3.61719
432.056	8.63251
435.431	7.62085
438.805	5.66516
442.18	12.8837
445.555	15.7665
448.93	21.326
452.305	22.5057
455.68	25.7225
459.054	31.6484
462.429	38.1507
465.804	37.1207
469.179	35.9794
472.554	32.4052
475.928	21.8162
479.303	16.319
482.678	11.8395
486.053	4.37573
489.428	2.49396
492.803	0.256348
496.177	0.729675
499.552	4.25653
502.927	3.30017
506.302	3.51056
509.677	4.50299
513.051	7.80872
516.426	18.9046
519.801	24.6883
523.176	28.6044
526.551	35.9826
529.926	26.726
533.3	21.4123
536.675	15.9146
540.05	14.962
543.425	9.93756
546.799	7.12695
550.174	5.71314
553.549	10.233
556.924	9.26154
560.299	14.9996
563.674	14.4046
567.048	17.8602
570.423	11.033
573.798	10.9878
577.173	6.68146
580.548	9.34198
583.923	3.15826
587.297	1.17737
590.672	1.35846
594.047	1.87195
597.422	0.997803
600.797	2.84705
604.171	1.18048
607.546	2.12256
610.921	6.46057
614.296	9.72076
617.671	14.9834
621.045	29.4616
624.42	44.6061
627.795	46.3111
631.17	41.4087
634.545	36.338
637.919	24.9182
641.294	20.8632
644.669	13.0413
648.044	12.7111
651.419	10.7969
654.794	9.54736
658.168	12.1569
661.543	12.0973
664.918	13.2643
668.293	18.0925
671.668	16.9362
675.043	13.4107
678.417	11.3139
681.792	9.36603
685.167	5.61896
688.542	5.72321
691.917	6.03369
695.291	0.674011
698.666	1.04919
702.041	2.22388
705.416	0.040833
708.791	1.11871
712.165	0.176086
715.54	3.172
718.915	3.0412
722.29	9.40704
725.665	6.96216
729.039	14.1961
732.414	15.0465
735.789	17.0879
739.164	19.217
742.539	22.7513
745.914	29.493
749.288	33.1967
752.663	32.7806
756.038	33.4281
759.413	30.1022
762.788	31.4194
766.163	34.4714
769.537	25.746
772.912	15.6929
776.287	9.09448
779.662	9.66693
783.037	2.03406
786.411	2.75629
789.786	7.6391
793.161	11.1466
796.536	2.41797
799.911	1.28314
803.285	4.41815
806.66	5.54578
810.035	6.4079
813.41	0.045471
816.785	4.36768
820.159	7.14478
823.534	1.25525
826.909	1.41296
830.284	0.601013
833.659	1.86041
837.034	0.308228
840.408	1.96643
843.783	5.75574
847.158	10.0328
850.533	12.403
853.908	8.8894
857.283	7.47559
860.657	3.32861
864.032	2.69446
867.407	8.35553
870.782	12.4572
874.157	17.2485
877.531	16.8645
880.906	20.7795
884.281	26.6381
887.656	22.2009
891.031	24.0892
894.405	22.7574
897.78	19.7587
901.155	18.0746
904.53	17.5975
907.905	17.5131
911.279	11.8918
914.654	12.6687
918.029	13.3792
921.404	6.73773
924.779	4.92981
928.154	5.71753
931.528	9.64233
934.903	5.17188
938.278	4.55804
941.653	4.09418
945.028	8.354
948.403	2.44159
951.777	3.06134
955.152	1.62628
958.527	1.79804
961.902	0.582642
965.277	0.960266
968.651	0.456909
972.026	1.77899
975.401	1.4378
978.776	4.13007
982.151	8.40155
985.525	4.18658
988.9	6.48987
992.275	5.4043
995.65	4.53656
999.025	7.02637
1002.4	5.12549
1005.77	5.42786
1009.15	1.88855
1012.52	3.03381
1015.9	5.6579
1019.27	2.55914
1022.65	2.43616
1026.02	1.64038
1029.4	4.99158
1032.77	1.51569
1036.15	8.29211
1039.52	4.06586
1042.9	6.21161
1046.27	5.79761
1049.65	0.762512
1053.02	1.26733
1056.4	2.9956
1059.77	1.53125
1063.15	0.164795
1066.52	0.84021
1069.9	2.44788
1073.27	0.108521
1076.64	2.10248
1080.02	0.467957
1083.39	2.37933
1086.77	5.64227
1090.14	2.8866
1093.52	7.92999
1096.89	2.26068
1100.27	1.78625
1103.64	4.17267
1107.02	3.49768
1110.39	4.09732
1113.77	6.35959
1117.14	6.7771
1120.52	5.61957
1123.89	8.2088
1127.27	9.29974
1130.64	9.92227
1134.02	9.54703
1137.39	10.9044
1140.77	15.1789
1144.14	17.2477
1147.52	16.627
1150.89	17.5921
1154.27	20.4984
1157.64	16.5066
1161.02	16.4631
1164.39	17.6814
1167.77	16.2484
1171.14	16.385
1174.52	19.6846
1177.89	17.2244
1181.27	15.7806
1184.64	11.7428
1188.01	10.8447
1191.39	7.50641
1194.76	7.20468
1198.14	7.98276
1201.51	6.96167
1204.89	2.77081
1208.26	1.72998
1211.64	0.570313
1215.01	2.39203
1218.39	0.788574
1221.76	1.02875
1225.14	3.65549
1228.51	1.77771
1231.89	1.55307
1235.26	7.94775
1238.64	6.41937
1242.01	10.5024
1245.39	15.1208
1248.76	12.141
1252.14	14.049
1255.51	14.741
1258.88	22.9979
1262.26	18.9009
1265.63	17.8995
1269.01	10.6562
1272.38	7.18842
1275.76	3.54077
1279.13	0.093811
1282.51	1.80664
