Measurement: Raman, 532 nm, unoriented, Raman Data Processed
Mineral: Serendibite
Rruff sample: R070633
Ideal chemistry: Ca_4_(Mg_6_Al_6_)O_4_[Si_6_B_3_Al_3_O_36_]
Locality: Burma
Source: www.multicolour.com
Description: Black, dark blue under strong light, polished gemstone
Measured chemistry: (Ca_1.91_Na_0.09_)_Σ=2_(Mg_2.59_Al_0.18_Fe^2+^_0.11_Fe^3+^_0.11_)_Σ=3_Al_4.50_B_1.50_(Si_2.78_Al_0.22_)_Σ=3_O_20_ ; B_2_O_3_ estimated by charge balance; Fe^2+^ and Fe^3+^ splitted by charge balance
Raman shift (cm-1)	intensity
141.227	0
144.12	113.911
147.013	218.994
149.905	180.005
152.798	142.012
155.691	163.036
158.584	92.1296
161.476	16.2363
164.369	40.041
167.262	14.9011
170.154	86.5388
173.047	82.7708
175.94	69.7939
178.832	62.0552
181.725	165.594
184.618	185.058
187.511	180.762
190.403	245.537
193.296	284.747
196.189	314.582
199.081	340.789
201.974	273.986
204.867	224.895
207.759	176.248
210.652	110.333
213.545	43.6443
216.438	12.2922
219.33	35.0642
222.223	75.8052
225.116	8.89624
228.008	56.6992
230.901	73.4875
233.794	79.0147
236.686	127.181
239.579	160.422
242.472	124.16
245.364	156.11
248.257	93.4385
251.15	65.6663
254.043	93.324
256.935	80.4194
259.828	126.073
262.721	124.107
265.613	265.554
268.506	250.798
271.399	319.696
274.291	320.369
277.184	356.761
280.077	281.892
282.97	225.084
285.862	237.193
288.755	345.754
291.648	419.469
294.54	545.107
297.433	655.902
300.326	657.855
303.219	718.544
306.111	718.641
309.004	601.663
311.897	477.231
314.789	352.673
317.682	345.755
320.575	292.079
323.467	193.404
326.36	110.78
329.253	108.807
332.145	66.3621
335.038	16.3389
337.931	36.3015
340.824	73.7822
343.716	72.6128
346.609	75.3227
349.502	111.99
352.394	127.712
355.287	175.542
358.18	164.324
361.072	110.002
363.965	83.2524
366.858	83.5576
369.75	45.3821
372.643	24.1992
375.536	6.05176
378.429	40.0095
381.321	9.12012
384.214	1.13818
387.107	49.1018
389.999	63.0544
392.892	148.566
395.785	175.889
398.678	219.959
401.57	212.599
404.463	242.131
407.356	264.714
410.248	217.546
413.141	165.667
416.034	109.031
418.926	79.2163
421.819	95.5581
424.712	41.2602
427.604	122.204
430.497	92.0813
433.39	99.041
436.283	95.7214
439.175	135.965
442.068	179.669
444.961	273.049
447.853	350.982
450.746	406.832
453.639	509.15
456.531	599.805
459.424	612.227
462.317	658.832
465.21	635.125
468.102	607.543
470.995	546.801
473.888	412.821
476.78	326.789
479.673	208.597
482.566	155.59
485.459	71.4468
488.351	29.7346
491.244	15.7454
494.137	20.7629
497.029	17.9998
499.922	31.8423
502.815	84.2634
505.707	59.4343
508.6	98.8003
511.493	143.309
514.385	206.279
517.278	305.41
520.171	306.018
523.063	337.865
525.956	257.279
528.849	206.722
531.742	84.897
534.634	69.519
537.527	28.1821
540.42	23.5139
543.312	28.1477
546.205	12.7842
549.098	60.8745
551.99	75.8403
554.883	92.2541
557.776	136.082
560.669	214.261
563.561	233.748
566.454	292.771
569.347	250.721
572.239	249.258
575.132	240.571
578.025	230.824
580.918	247.575
583.81	207.923
586.703	179.933
589.596	258.409
592.488	209.885
595.381	183.862
598.274	133.878
601.166	157.909
604.059	155.071
606.952	161.66
609.845	181.792
612.737	254.114
615.63	275.675
618.523	389.913
621.415	437.058
624.308	461.633
627.201	431.004
630.093	359.976
632.986	326.894
635.879	158.391
638.771	121.867
641.664	91.908
644.557	44.5864
647.45	37.9646
650.342	23.1492
653.235	36.894
656.128	68.7898
659.02	45.0781
661.913	119.191
664.806	100.459
667.698	111.679
670.591	111.485
673.484	74.2144
676.376	51.0947
679.269	68.5664
682.162	36.4419
685.055	43.002
687.947	23.605
690.84	1.01245
693.733	4.53442
696.625	25.3315
699.518	4.10474
702.411	15.6539
705.303	3.03955
708.196	12.3525
711.089	20.7185
713.982	22.6154
716.874	74.3865
719.767	89.4829
722.66	123.448
725.552	109.104
728.445	152.316
731.338	188.566
734.231	242.264
737.123	278.407
740.016	333.291
742.909	369.258
745.801	356.304
748.694	424.347
751.587	432.554
754.479	370.771
757.372	389.002
760.265	388.786
763.158	288.848
766.05	291.504
768.943	234.969
771.836	171.619
774.728	159.75
777.621	124.969
780.514	131.406
783.406	155.414
786.299	55.0972
789.192	122.223
792.085	47.3677
794.977	64.7183
797.87	85.2905
800.763	91.022
803.655	78.5659
806.548	79.449
809.441	67.2788
812.333	33.8342
815.226	19.167
818.119	40.3855
821.011	14.6099
823.904	3.99268
826.797	12.998
829.69	18.3555
832.582	13.8813
835.475	22.3494
838.368	11.0217
841.26	3.85669
844.153	26.9329
847.046	49.4961
849.938	26.3882
852.831	65.5657
855.724	81.533
858.616	92.0354
861.509	171.943
864.402	148.504
867.295	245.809
870.187	273.222
873.08	309.275
875.973	321.725
878.865	350.283
881.758	388.506
884.651	343.631
887.543	351.738
890.436	321.321
893.329	284.765
896.222	279.549
899.114	280.329
902.007	204.91
904.9	195.912
907.792	133.762
910.685	153.492
913.578	126.183
916.471	87.0112
919.363	76.9397
922.256	51.6904
925.149	59.175
928.041	53.0295
930.934	62.4177
933.827	53.5042
936.719	49.8203
939.612	75.4993
942.505	97.3909
945.398	40.0227
948.29	61.2253
951.183	18.7944
954.076	49.6155
956.968	38.0879
959.861	37.8018
962.754	67.1167
965.646	59.3657
968.539	84.9365
971.432	99.7463
974.324	133.298
977.217	163.883
980.11	143.517
983.003	156.64
985.895	144.302
988.788	146.555
991.681	135.973
994.573	133.448
997.466	123.542
1000.36	105.881
1003.25	94.5273
1006.14	39.6982
1009.04	63.9829
1011.93	38.229
1014.82	27.7703
1017.72	41.6687
1020.61	26.1323
1023.5	13.8555
1026.39	27.564
1029.29	34.8411
1032.18	5.31653
1035.07	23.0675
1037.96	39.9003
1040.86	2.46118
1043.75	31.0926
1046.64	31.7637
1049.54	29.911
1052.43	2.33081
1055.32	0.074097
1058.21	43.479
1061.11	17.8868
1064	14.6796
1066.89	12.6948
1069.78	5.71655
1072.68	15.9716
1075.57	28.8019
1078.46	13.2767
1081.35	18.0349
1084.25	6.97229
1087.14	7.95813
1090.03	22.1859
1092.92	2.65735
1095.82	21.6426
1098.71	73.2639
1101.6	54.9794
1104.5	42.7682
1107.39	66.1898
1110.28	100.042
1113.17	68.6084
1116.07	87.559
1118.96	84.4609
1121.85	92.912
1124.74	119.607
1127.64	71.4944
1130.53	71.725
1133.42	95.3221
1136.32	95.7771
1139.21	86.4428
1142.1	109.729
1144.99	88.7389
1147.89	107.053
1150.78	146.379
1153.67	90.3544
1156.56	73.3669
1159.46	54.9482
1162.35	74.4657
1165.24	61.0118
1168.13	73.3453
1171.03	77.0382
1173.92	76.1921
1176.81	43.1328
1179.71	61.5665
1182.6	50.4282
1185.49	33.1211
1188.38	76.7304
1191.28	24.5848
1194.17	34.0026
1197.06	37.0751
1199.95	32.2034
1202.85	24.3519
1205.74	24.4016
1208.63	20.4308
1211.53	13.9152
1214.42	16.1542
1217.31	9.28577
1220.2	15.1035
1223.1	2.13232
1225.99	17.5067
1228.88	14.7122
1231.78	11.7472
1234.67	34.8953
1237.56	1.1261
1240.45	8.81726
1243.35	35.446
1246.24	46.1685
1249.13	12.1663
1252.02	42.8165
1254.92	0.988037
1257.81	25.8011
1260.7	53.3308
1263.59	38.4576
1266.49	28.0834
1269.38	31.7814
1272.27	28.6892
1275.16	32.069
1278.06	16.3635
1280.95	38.2936
