Measurement: Raman, 780 nm, unoriented, Raman Data Processed
Mineral: Serrabrancaite
Rruff sample: R080077
Ideal chemistry: Mn^3+^P^5+^O_4_H_2_O
Locality: Serra Branca pegmatite, Pedra Lavrada, Para√≠ba; Northeast, Brazil
Source: Michael Scott
Description: Granular massive dark green to black, associated with vernadite, R080100
Raman shift (cm-1)	intensity
136.396	0
139.289	0.611412
142.181	1.29205
145.074	0.032906
147.967	1.51935
150.859	1.17596
153.752	1.53878
156.645	2.34095
159.538	2.35974
162.43	2.84768
165.323	2.09588
168.216	3.31887
171.108	3.01417
174.001	2.20266
176.894	3.97298
179.786	4.12692
182.679	4.99924
185.572	5.06765
188.465	5.41011
191.357	4.24705
194.25	4.82304
197.143	4.44833
200.035	4.65325
202.928	4.4356
205.821	2.87646
208.714	1.21494
211.606	0.895775
214.499	0.724743
217.392	0.077759
220.284	0.797062
223.177	0.299427
226.07	0.132317
228.962	0.323616
231.855	0.405769
234.748	0.379427
237.641	0.576866
240.533	1.2567
243.426	1.55884
246.319	2.57585
249.211	2.39884
252.104	3.09782
254.997	3.50762
257.889	3.84264
260.782	3.10827
263.675	2.75787
266.567	2.22069
269.46	4.49953
272.353	3.00939
275.246	3.93323
278.138	3.89745
281.031	4.65037
283.924	5.44955
286.816	5.4882
289.709	4.98249
292.602	4.91604
295.495	4.20567
298.387	3.83289
301.28	4.67394
304.173	4.41024
307.065	3.68238
309.958	4.14866
312.851	3.91329
315.743	3.19231
318.636	2.8342
321.529	2.95701
324.421	2.9415
327.314	2.65538
330.207	3.18131
333.1	2.83792
335.992	2.83616
338.885	1.48947
341.778	1.5389
344.67	1.01864
347.563	1.06988
350.456	0.887224
353.349	0.208792
356.241	0.157875
359.134	0.72983
362.027	0.880333
364.919	0.417711
367.812	0.612577
370.705	1.00971
373.597	0.0543
376.49	1.95256
379.383	1.13646
382.276	2.0354
385.168	1.01887
388.061	1.12795
390.954	0.73974
393.846	0.687059
396.739	0.466297
399.632	0.218281
402.524	0.323656
405.417	0.450527
408.31	0.051035
411.202	0.070866
414.095	0.608404
416.988	0.337799
419.881	0.523987
422.773	1.62448
425.666	2.04471
428.559	2.25624
431.451	2.72261
434.344	2.86421
437.237	4.53783
440.13	5.01025
443.022	5.09235
445.915	5.63014
448.808	5.85197
451.7	5.0742
454.593	5.10507
457.486	4.67584
460.378	5.27293
463.271	4.50651
466.164	4.84534
469.057	4.92678
471.949	5.63465
474.842	5.01413
477.735	5.66449
480.627	4.44321
483.52	5.23264
486.413	4.11733
489.305	3.61772
492.198	2.76833
495.091	2.34795
497.983	1.75541
500.876	1.32998
503.769	1.08825
506.662	1.13859
509.554	0.3699
512.447	0.280247
515.34	0.188097
518.232	0.616173
521.125	0.13677
524.018	0.159504
526.91	0.075937
529.803	0.116688
532.696	0.233374
535.589	0.443211
538.481	0.468672
541.374	0.932823
544.267	1.1694
547.159	0.934135
550.052	1.00953
552.945	0.910835
555.837	1.75494
558.73	2.30753
561.623	2.32536
564.516	2.76736
567.408	2.57396
570.301	3.00095
573.194	2.37608
576.086	2.4618
578.979	1.81743
581.872	1.99338
584.764	0.778038
587.657	1.17383
590.55	1.08137
593.443	0.916777
596.335	1.15024
599.228	1.83766
602.121	1.06989
605.013	1.09854
607.906	2.16624
610.799	0.909201
613.692	1.47222
616.584	2.2455
619.477	2.08677
622.37	1.92885
625.262	2.29206
628.155	2.50018
631.048	2.38041
633.94	3.18803
636.833	2.70734
639.726	3.3037
642.619	4.05437
645.511	3.69338
648.404	3.00191
651.297	3.42292
654.189	2.82365
657.082	2.11392
659.975	2.21904
662.867	2.50096
665.76	1.96732
668.653	1.69723
671.545	1.57383
674.438	0.907923
677.331	0.654947
680.224	0.234884
683.116	0.511217
686.009	0.040806
688.902	0.618288
691.794	0.235323
694.687	0.550749
697.58	0.457109
700.472	0.394999
703.365	0.060879
706.258	0.439959
709.151	0.130337
712.043	0.718544
714.936	0.409933
717.829	0.045614
720.721	0.013988
723.614	0.722401
726.507	0.819876
729.399	0.292419
732.292	1.16192
735.185	0.57522
738.078	1.50936
740.97	1.15927
743.863	0.694334
746.756	0.994068
749.648	0.778759
752.541	0.589718
755.434	0.845112
758.327	0.466681
761.219	0.558432
764.112	0.599266
767.005	0.713007
769.897	0.332996
772.79	0.57288
775.683	0.673864
778.575	0.404829
781.468	0.501598
784.361	0.051712
787.254	0.047035
790.146	0.529301
793.039	0.703676
795.932	0.501995
798.824	0.120493
801.717	0.154434
804.61	1.09167
807.502	0.764288
810.395	0.235525
813.288	0.551368
816.181	0.333265
819.073	0.644458
821.966	0.856313
824.859	0.669328
827.751	1.04682
830.644	0.591346
833.537	0.819856
836.429	0.806862
839.322	0.53766
842.215	0.601685
845.107	0.726583
848	1.1404
850.893	0.816904
853.786	0.482148
856.678	1.03396
859.571	0.910595
862.464	1.30493
865.356	1.07688
868.249	1.28509
871.142	0.698069
874.034	1.15808
876.927	0.872667
879.82	0.733659
882.713	1.23575
885.605	0.864172
888.498	1.21268
891.391	0.618333
894.283	0.710138
897.176	0.766785
900.069	0.007836
902.962	0.58697
905.854	0.005345
908.747	0.131905
911.64	0.11079
914.532	0.617519
917.425	0.410722
920.318	0.033337
923.21	0.415671
926.103	0.073405
928.996	0.389495
931.888	0.120646
934.781	0.613983
937.674	0.4636
940.567	0.620062
943.459	0.510042
946.352	1.20884
949.245	1.82669
952.137	1.96532
955.03	1.56206
957.923	2.07081
960.815	2.72105
963.708	3.30818
966.601	5.24319
969.494	5.82292
972.386	9.22725
975.279	11.8482
978.172	13.5485
981.064	16.5992
983.957	16.9109
986.85	15.4517
989.742	15.3007
992.635	13.9766
995.528	11.6898
998.42	11.4707
1001.31	10.9658
1004.21	10.8852
1007.1	9.97005
1009.99	10.245
1012.88	7.01101
1015.78	5.41877
1018.67	4.51682
1021.56	4.34727
1024.45	3.82094
1027.35	3.81491
1030.24	4.39687
1033.13	4.36973
1036.03	4.96571
1038.92	4.10986
1041.81	3.01082
1044.7	2.6851
1047.6	1.75858
1050.49	1.97279
1053.38	1.48088
1056.28	1.90531
1059.17	1.56713
1062.06	0.554729
1064.95	0.159744
1067.85	0.430967
1070.74	0.598822
1073.63	0.355408
1076.52	0.165968
1079.42	0.256156
1082.31	0.496963
1085.2	0.38943
1088.09	0.197633
1090.99	0.661975
1093.88	0.044267
1096.77	0.029792
1099.66	0.173591
1102.56	0.116507
1105.45	0.268237
1108.34	0.464314
1111.24	0.192596
1114.13	0.605896
1117.02	0.232332
1119.91	0.956861
1122.81	0.138847
1125.7	0.935446
1128.59	0.036034
1131.48	0.666775
1134.38	0.781898
1137.27	0.217134
1140.16	1.03388
1143.06	0.415903
1145.95	1.21416
1148.84	0.515065
1151.73	0.576089
1154.63	0.533389
1157.52	0.378687
1160.41	0.721332
1163.3	0.559719
1166.2	0.390909
1169.09	1.4397
1171.98	0.549952
1174.88	0.917009
1177.77	0.67696
1180.66	0.781055
1183.55	0.5287
1186.45	0.880026
1189.34	0.467574
1192.23	0.691483
1195.12	0.650755
1198.02	0.273615
1200.91	1.01805
1203.8	1.34045
1206.69	0.67206
1209.59	1.17207
1212.48	0.178862
1215.37	0.979959
1218.27	0.014164
1221.16	0.155547
1224.05	0.624586
1226.94	0.315161
1229.84	0.869117
1232.73	0.682083
1235.62	0.476418
1238.52	0.810197
1241.41	0.527287
1244.3	0.193257
1247.19	0.689134
1250.09	0.789136
1252.98	0.944088
1255.87	0.471436
1258.76	0.550007
1261.66	0.133585
1264.55	0.052871
1267.44	0.199955
1270.33	0.917192
1273.23	0.515379
1276.12	0
