Measurement: Raman, 532 nm, unoriented, Raman Data Processed
Mineral: Shandite
Rruff sample: R070090
Ideal chemistry: Pb_2_Ni_3_S_2_
Locality: Nickel Reward mine, Tasmania, Australia
Source: Michael Scott
Description: Bright silver metallic blebs in serpentinite, chonchoidal fracture
Raman shift (cm-1)	intensity
134.271	0
137.646	27.1352
141.02	56.6519
144.395	5.28088
147.77	54.2585
151.145	47.0635
154.52	100.375
157.894	30.8169
161.269	63.2431
164.644	44.7739
168.019	73.433
171.394	122.785
174.769	72.7071
178.143	57.1759
181.518	49.0404
184.893	65.97
188.268	109.41
191.643	72.3302
195.018	53.6937
198.392	73.1347
201.767	106.637
205.142	73.6558
208.517	42.7653
211.892	34.7917
215.266	58.1144
218.641	23.2963
222.016	15.9506
225.391	11.2887
228.766	5.66101
232.141	17.4497
235.515	4.20264
238.89	2.24115
242.265	5.15161
245.64	14.307
249.015	39.6266
252.389	61.0482
255.764	82.0584
259.139	48.2764
262.514	39.7935
265.889	57.9577
269.264	21.0681
272.638	12.6813
276.013	0.526215
279.388	14.7615
282.763	2.23731
286.137	27.7076
289.512	29.8444
292.887	40.1848
296.262	59.3038
299.637	60.016
303.012	83.7238
306.387	94.4377
309.761	79.9921
313.136	116.081
316.511	92.6772
319.886	102.36
323.261	79.6771
326.635	69.2968
330.01	58.8846
333.385	23.9764
336.76	55.9544
340.135	63.0758
343.51	67.0973
346.884	94.0075
350.259	148.768
353.634	198.556
357.009	252.301
360.384	286.286
363.758	350.249
367.133	387.411
370.508	382.746
373.883	363.195
377.258	349.572
380.632	268.482
384.007	242.532
387.382	181.593
390.757	160.211
394.132	147.036
397.507	153.415
400.881	116.403
404.256	102.584
407.631	137.305
411.006	89.2834
414.381	47.4707
417.755	2.79935
421.13	12.5647
424.505	8.17183
427.88	12.4529
431.255	57.5948
434.63	57.916
438.004	45.9173
441.379	62.023
444.754	74.9604
448.129	51.3957
451.504	65.3311
454.878	66.0207
458.253	43.2396
461.628	40.2164
465.003	49.7131
468.378	37.1827
471.752	87.7493
475.127	81.948
478.502	60.275
481.877	44.2668
485.252	50.9469
488.627	40.7496
492.001	26.8675
495.376	31.8978
498.751	30.4006
502.126	45.2858
505.501	25.734
508.875	46.9994
512.25	48.3461
515.625	43.9259
519	71.6548
522.375	64.0426
525.75	77.5917
529.125	47.6157
532.499	49.129
535.874	34.883
539.249	22.7751
542.624	22.591
545.999	10.5772
549.373	4.21927
552.748	36.4519
556.123	35.8056
559.498	18.6485
562.873	28.1784
566.247	15.3669
569.622	31.056
572.997	2.12053
576.372	15.3193
579.747	29.973
583.121	14.5672
586.496	1.40359
589.871	22.9354
593.246	29.8866
596.621	12.209
599.996	25.1841
603.37	17.6118
606.745	24.0131
610.12	20.7328
613.495	30.1427
616.87	20.9879
620.245	32.5193
623.619	8.15433
626.994	11.8922
630.369	28.2669
633.744	32.7565
637.119	17.4485
640.493	18.5404
643.868	1.73595
647.243	38.4892
650.618	37.45
653.993	22.7914
657.367	22.8621
660.742	31.2338
664.117	20.8253
667.492	26.3779
670.867	16.0548
674.242	22.0622
677.616	26.2085
680.991	39.3936
684.366	0.776413
687.741	20.3111
691.116	24.994
694.49	6.13646
697.865	1.62114
701.24	0.169418
704.615	2.4151
707.99	20.293
711.365	50.5556
714.739	29.9568
718.114	33.9901
721.489	19.8412
724.864	12.4994
728.239	38.8511
731.614	25.4601
734.988	7.75073
738.363	5.5966
741.738	26.3079
745.113	1.35966
748.488	16.1618
751.862	35.148
755.237	12.8646
758.612	19.0211
761.987	23.1343
765.362	11.8448
768.736	19.3224
772.111	16.8088
775.486	14.1405
778.861	19.4202
782.236	5.61182
785.611	20.2704
788.985	19.483
792.36	24.141
795.735	12.7631
799.11	2.20227
802.485	1.00052
805.86	2.81657
809.234	0.437805
812.609	8.69432
815.984	23.0545
819.359	7.52177
822.734	0.987793
826.108	8.52461
829.483	26.0203
832.858	18.339
836.233	8.34732
839.608	34.3237
842.982	11.7012
846.357	28.3359
849.732	15.0166
853.107	14.4479
856.482	19.7287
859.857	42.122
863.231	9.76605
866.606	19.0984
869.981	31.0894
873.356	34.8453
876.731	18.2462
880.106	15.8142
883.48	10.2307
886.855	17.1257
890.23	22.1544
893.605	4.81513
896.98	29.6965
900.354	27.2873
903.729	14.938
907.104	18.6763
910.479	25.0953
913.854	23.6051
917.229	7.39496
920.603	16.8155
923.978	31.4852
927.353	33.6804
930.728	31.3283
934.102	26.4922
937.477	22.1873
940.852	13.773
944.227	2.29497
947.602	11.5489
950.977	9.90213
954.351	3.75687
957.726	56.592
961.101	22.7768
964.476	24.1792
967.851	8.89676
971.226	22.3057
974.6	7.48218
977.975	26.3882
981.35	18.0618
984.725	12.6928
988.1	9.90543
991.475	22.2044
994.849	21.7354
998.224	17.0332
1001.6	1.08179
1004.97	39.4695
1008.35	8.3306
1011.72	36.2375
1015.1	7.21436
1018.47	10.114
1021.85	31.1026
1025.22	9.2948
1028.6	31.0559
1031.97	21.5774
1035.35	20.3933
1038.72	19.6335
1042.1	36.9416
1045.47	27.7559
1048.85	11.5359
1052.22	7.75397
1055.6	33.4959
1058.97	9.18631
1062.35	13.7294
1065.72	12.1681
1069.1	6.69095
1072.47	8.40912
1075.85	34.9543
1079.22	34.7647
1082.59	25.4872
1085.97	8.07602
1089.34	19.8157
1092.72	1.77808
1096.09	20.4049
1099.47	13.6844
1102.84	24.2421
1106.22	15.8227
1109.59	1.07452
1112.97	23.1345
1116.34	10.0217
1119.72	14.329
1123.09	28.5973
1126.47	3.47238
1129.84	12.2025
1133.22	21.3701
1136.59	18.7171
1139.97	3.17245
1143.34	13.1531
1146.72	1.21283
1150.09	19.5534
1153.47	1.68677
1156.84	14.9489
1160.21	11.7586
1163.59	50.3139
1166.96	6.99774
1170.34	0.577606
1173.71	31.0996
1177.09	35.8401
1180.46	12.6311
1183.84	35.1341
1187.21	18.2214
1190.59	27.8158
1193.96	29.2793
1197.34	18.137
1200.71	43.9682
1204.09	39.7682
1207.46	24.9126
1210.84	41.8219
1214.21	44.7988
1217.59	26.6552
1220.96	24.4657
1224.34	30.6205
1227.71	1.84692
1231.09	29.9874
1234.46	19.1391
1237.84	17.8677
1241.21	32.6993
1244.59	32.9091
1247.96	15.9061
1251.34	22.458
1254.71	35.8792
1258.09	33.0421
1261.46	46.9896
1264.84	43.233
1268.21	49.5954
1271.58	33.1967
1274.96	9.24509
1278.33	19.3285
1281.71	35.4309
1285.08	21.0764
1288.46	14.0761
1291.83	13.1298
1295.21	0.058624
1298.58	6.34116
1301.96	20.1886
1305.33	6.52307
