Measurement: Raman, 780 nm, unoriented, Raman Data Processed
Mineral: Shattuckite
Rruff sample: R050133
Ideal chemistry: Cu^2+^_5_(SiO_3_)_4_(OH)_2_
Locality: Ajo, Pima County, Arizona, USA
Source: University of Arizona Mineral Museum
Description: Aggregate of blue flattened grains
Measured chemistry: Cu_5.00_(Si_0.99_Al_0.01_O_3_)_4_((OH)_0.97_(H_2_O)_0.03_)_2_
Raman shift (cm-1)	intensity
139.369	0
142.261	0.712494
145.154	0.110046
148.047	1.50699
150.939	1.89444
153.832	3.00378
156.725	1.95541
159.617	3.36346
162.51	2.45148
165.403	3.09161
168.296	3.90643
171.188	3.53967
174.081	5.36514
176.974	4.15494
179.866	3.87006
182.759	3.62924
185.652	3.88452
188.544	3.40097
191.437	3.06619
194.33	1.54379
197.222	0.559723
200.115	0.64743
203.008	0.009155
205.901	0.78714
208.793	0.882294
211.686	1.2518
214.579	0.402069
217.471	1.82303
220.364	1.30075
223.257	1.862
226.149	1.388
229.042	1.2731
231.935	2.1185
234.827	1.58179
237.72	2.82413
240.613	4.26398
243.506	3.43265
246.398	4.89685
249.291	6.07211
252.184	6.41992
255.076	4.5834
257.969	5.50659
260.862	5.54102
263.755	7.75665
266.647	7.47623
269.54	7.14136
272.433	7.97015
275.325	6.90637
278.218	7.22617
281.111	7.34055
284.003	5.71597
286.896	5.54211
289.789	5.77527
292.682	4.86874
295.574	4.95843
298.467	5.10562
301.36	4.83765
304.252	3.9263
307.145	4.38995
310.038	4.23553
312.93	3.69897
315.823	3.81662
318.716	6.08505
321.609	5.65353
324.501	6.58304
327.394	6.82489
330.287	4.93695
333.179	3.82767
336.072	3.37405
338.965	1.86899
341.857	1.27393
344.75	0.997925
347.643	1.25073
350.536	0.561279
353.428	0.440521
356.321	0.173737
359.214	1.50479
362.106	0.411224
364.999	1.20938
367.892	0.757294
370.784	0.076279
373.677	0.397461
376.57	0.376816
379.462	2.5697
382.355	2.11589
385.248	3.23229
388.141	1.55154
391.033	2.67065
393.926	3.18811
396.819	3.23759
399.711	2.12631
402.604	1.68913
405.497	1.52129
408.389	1.53238
411.282	0.492798
414.175	0.250198
417.068	0.278763
419.96	1.7856
422.853	1.6154
425.746	3.87885
428.638	4.72908
431.531	4.15871
434.424	5.15057
437.317	5.45003
440.209	4.05531
443.102	3.94157
445.995	4.5647
448.887	3.51212
451.78	2.08363
454.673	1.62253
457.565	1.90733
460.458	2.99831
463.351	1.5333
466.243	1.02353
469.136	0.381866
472.029	1.70599
474.922	1.13464
477.814	1.5769
480.707	1.90131
483.6	2.27661
486.492	1.6586
489.385	2.93565
492.278	4.38336
495.171	6.30949
498.063	8.04999
500.956	8.67523
503.849	8.69878
506.741	8.94702
509.634	8.38589
512.527	6.69484
515.419	5.08748
518.312	4.52075
521.205	2.12155
524.097	2.13252
526.99	1.15344
529.883	1.3064
532.776	0.440231
535.668	0.107208
538.561	0.304688
541.454	0.34726
544.346	0.113693
547.239	0.80188
550.132	0.374619
553.024	0.620026
555.917	1.84444
558.81	2.20195
561.703	0.733856
564.595	0.808975
567.488	0.88504
570.381	0.609848
573.273	0.372391
576.166	1.01947
579.059	1.8381
581.952	1.09781
584.844	0.421204
587.737	1.19965
590.63	1.50021
593.522	1.09608
596.415	1.36348
599.308	0.059723
602.2	0.120422
605.093	0.581741
607.986	0.842773
610.879	0.422287
613.771	0.711411
616.664	0.187363
619.557	0.25296
622.449	1.26652
625.342	0.837326
628.235	2.5389
631.127	0.241928
634.02	1.87705
636.913	1.71678
639.806	2.64835
642.698	2.26801
645.591	0.83461
648.484	2.16211
651.376	1.85622
654.269	1.43259
657.162	1.8101
660.054	2.67361
662.947	1.42201
665.84	2.2056
668.732	1.00905
671.625	1.09142
674.518	0.832336
677.411	1.13779
680.303	0.971069
683.196	0.345322
686.089	1.06252
688.981	0.064041
691.874	0.054459
694.767	0.78035
697.659	0.178253
700.552	0.858734
703.445	1.47601
706.338	0.998108
709.23	1.2833
712.123	0.406616
715.016	1.16458
717.908	0.666824
720.801	0.66275
723.694	0.505402
726.587	0.393097
729.479	0.281937
732.372	0.552689
735.265	0.603226
738.157	0.374832
741.05	0.353699
743.943	0.071426
746.835	0.227463
749.728	0.428772
752.621	0.22612
755.514	0.991089
758.406	0.723068
761.299	0.038193
764.192	1.43678
767.084	1.94476
769.977	1.27821
772.87	0.639206
775.762	2.14307
778.655	1.9175
781.548	1.26128
784.441	1.51352
787.333	1.04365
790.226	0.760361
793.119	1.75684
796.011	1.45822
798.904	2.76999
801.797	0.82373
804.689	0.164047
807.582	0.810333
810.475	1.91174
813.367	1.54245
816.26	0.979889
819.153	2.12338
822.046	1.30073
824.938	1.52502
827.831	2.23688
830.724	2.21165
833.616	3.09445
836.509	2.58699
839.402	2.46312
842.294	3.28658
845.187	3.10388
848.08	2.60374
850.973	3.53938
853.865	2.3737
856.758	2.28082
859.651	2.57521
862.543	1.78427
865.436	2.63341
868.329	1.97266
871.221	2.54263
874.114	2.45627
877.007	1.45402
879.9	1.05095
882.792	1.54031
885.685	0.512192
888.578	1.04437
891.47	0.092453
894.363	1.34824
897.256	0.105301
900.149	0.932007
903.041	1.0163
905.934	0.337372
908.827	0.278595
911.719	0.161804
914.612	1.26456
917.505	0.152374
920.397	1.99548
923.29	1.28813
926.183	1.26189
929.075	1.77945
931.968	1.76894
934.861	2.52374
937.754	3.02667
940.646	2.68759
943.539	4.15433
946.432	3.08394
949.324	3.19591
952.217	2.67831
955.11	1.70317
958.002	2.94876
960.895	1.75554
963.788	3.52309
966.681	2.61742
969.573	1.6084
972.466	0.862381
975.359	0.807526
978.251	1.3019
981.144	1.13818
984.037	1.18187
986.929	0.164536
989.822	0.995499
992.715	0.43541
995.607	0.786819
998.5	0.920975
1001.39	0.329803
1004.29	0.166428
1007.18	0.464951
1010.07	0.401794
1012.96	0.070328
1015.86	0.231842
1018.75	0.86702
1021.64	1.44575
1024.54	0.651871
1027.43	0.440979
1030.32	1.52499
1033.21	0.069977
1036.11	0.62529
1039	1.92413
1041.89	2.03314
1044.78	1.35197
1047.68	2.12616
1050.57	3.07234
1053.46	2.79755
1056.35	2.93295
1059.25	3.31433
1062.14	3.2934
1065.03	2.33032
1067.92	2.22688
1070.82	3.49966
1073.71	1.36479
1076.6	1.60606
1079.5	1.1411
1082.39	1.48453
1085.28	1.90987
1088.17	1.26953
1091.07	0.593826
1093.96	1.08282
1096.85	0.458557
1099.74	0.084885
1102.64	0.947723
1105.53	0.293472
1108.42	0.142349
1111.32	0.37735
1114.21	0.652557
1117.1	0.591431
1119.99	0.235611
1122.89	0.007767
1125.78	0.174057
1128.67	0.662811
1131.56	1.72771
1134.46	0.991608
1137.35	1.05882
1140.24	0.704895
1143.13	1.44351
1146.03	1.48454
1148.92	1.4733
1151.81	1.27994
1154.71	2.25172
1157.6	3.1274
1160.49	2.42407
1163.38	1.61284
1166.28	2.10477
1169.17	3.13094
1172.06	2.25444
1174.95	2.81287
1177.85	3.31351
1180.74	2.13872
1183.63	2.27049
1186.53	2.21568
1189.42	3.04173
1192.31	1.90681
1195.2	2.23596
1198.1	1.51518
1200.99	2.57451
1203.88	0.995773
1206.78	1.8848
1209.67	1.08167
1212.56	1.30745
1215.45	0.900146
1218.35	1.17967
1221.24	0.335907
1224.13	0.593155
1227.02	0.128738
1229.92	0.99588
1232.81	0.823151
1235.7	0.238129
1238.59	2.36375
1241.49	1.94521
1244.38	1.50592
1247.27	2.09438
1250.16	2.26417
1253.06	1.74065
1255.95	1.60861
1258.84	1.18558
1261.74	0.327637
1264.63	1.05652
1267.52	1.92647
1270.41	0.84433
1273.31	0.436096
1276.2	1.51677
1279.09	0.502106
1281.98	0.762527
1284.88	0.958984
