Measurement: Raman, 785 nm, unoriented, Raman Data Processed
Mineral: Shattuckite
Rruff sample: R061073
Ideal chemistry: Cu^2+^_5_(SiO_3_)_4_(OH)_2_
Locality: Pinky mine, North of Copiapo, Chile
Source: Bob Jenkins
Description: Radial aggregates of pale blue fibrous crystals
Raman shift (cm-1)	intensity
124.04	0
126.933	55.3868
129.825	175.57
132.718	224.426
135.611	194.432
138.504	87.2811
141.396	99.2301
144.289	280.672
147.181	412.561
150.074	377.693
152.967	229.335
155.86	183.553
158.752	150.829
161.645	179.094
164.538	188.033
167.43	248.831
170.323	191.169
173.216	127.963
176.108	152.31
179.001	133.921
181.894	88.3504
184.787	111.717
187.679	137.779
190.572	111.611
193.465	96.4127
196.357	104.289
199.25	43.8479
202.143	47.2425
205.036	21.5529
207.928	3.49139
210.821	19.4195
213.714	11.5233
216.606	12.6307
219.499	7.82141
222.392	2.8302
225.284	9.22998
228.177	11.9816
231.07	23.4104
233.963	40.1616
236.855	1.90649
239.748	11.488
242.641	38.2482
245.533	56.1517
248.426	87.8964
251.319	95.7305
254.211	130.22
257.104	102.973
259.997	98.7985
262.889	73.4358
265.782	53.209
268.675	38.6876
271.568	26.2648
274.46	37.6606
277.353	26.2457
280.246	30.324
283.138	12.6232
286.031	3.5628
288.924	3.3147
291.817	15.8533
294.709	16.0627
297.602	34.4952
300.495	49.9494
303.387	10.0761
306.28	52.1108
309.173	51.8655
312.065	34.6657
314.958	64.0572
317.851	48.2619
320.743	60.5398
323.636	90.9894
326.529	187.955
329.422	192.216
332.314	188.101
335.207	172.986
338.1	107.791
340.992	75.7829
343.885	40.9294
346.778	35.0961
349.671	3.45483
352.563	24.4664
355.456	31.8345
358.349	12.4942
361.241	5.73047
364.134	0.664917
367.027	17.5582
369.919	13.0012
372.812	7.82318
375.705	2.27765
378.598	1.7981
381.49	25.6245
384.383	37.7965
387.276	46.854
390.168	81.3469
393.061	105.368
395.954	145.826
398.846	115.364
401.739	63.7889
404.632	61.4092
407.524	15.4701
410.417	4.19794
413.31	19.1246
416.202	10.0702
419.095	0.616699
421.988	0.588989
424.881	40.4262
427.773	36.4232
430.666	76.7637
433.559	65.7726
436.451	118.77
439.344	130.871
442.237	142.479
445.13	177.651
448.022	121.268
450.915	115.1
453.808	75.3897
456.7	76.4424
459.593	61.4574
462.486	37.9361
465.378	59.8328
468.271	25.2087
471.164	45.5507
474.057	41.227
476.949	31.6218
479.842	18.0071
482.735	12.746
485.627	33.567
488.52	33.1849
491.413	30.0322
494.305	78.8881
497.198	90.1328
500.091	149.666
502.983	247.178
505.876	300.331
508.769	301.9
511.662	292.711
514.554	222.238
517.447	142.169
520.34	118.751
523.232	66.1553
526.125	66.4522
529.018	23.5722
531.91	5.4646
534.803	1.73108
537.696	11.7714
540.589	7.77979
543.481	21.9482
546.374	24.5093
549.267	27.3676
552.159	27.3052
555.052	33.2274
557.945	63.4286
560.837	57.3394
563.73	47.1921
566.623	52.2728
569.516	34.8293
572.408	4.6962
575.301	14.4583
578.194	0.664886
581.086	25.6975
583.979	17.5977
586.872	23.38
589.764	21.8886
592.657	2.34982
595.55	1.51834
598.443	1.83423
601.335	16.7487
604.228	21.2423
607.121	10.9123
610.013	4.01102
612.906	4.9299
615.799	16.4757
618.692	14.0154
621.584	9.4826
624.477	21.3883
627.37	20.6374
630.262	17.1601
633.155	9.23013
636.048	18.7972
638.94	13.9369
641.833	46.727
644.726	41.0133
647.619	39.8336
650.511	43.4506
653.404	59.9664
656.297	55.5323
659.189	60.1016
662.082	61.0172
664.975	32.9286
667.867	28.6053
670.76	22.1144
673.653	37.8841
676.545	17.4019
679.438	9.90811
682.331	33.7659
685.224	12.3446
688.116	14.2871
691.009	3.4693
693.902	10.5816
696.794	0.072113
699.687	9.2327
702.58	20.0425
705.472	12.3961
708.365	4.37161
711.258	11.1999
714.151	17.02
717.043	18.6916
719.936	22.1708
722.829	11.3346
725.721	1.18198
728.614	11.1909
731.507	9.80591
734.399	28.0001
737.292	24.5962
740.185	19.1782
743.077	19.6175
745.97	21.4877
748.863	22.9783
751.756	24.9904
754.648	22.7406
757.541	17.0691
760.434	33.1467
763.326	47.5107
766.219	28.2888
769.112	54.1601
772.005	79.0797
774.897	75.1541
777.79	95.5648
780.683	80.305
783.575	56.5004
786.468	32.8457
789.361	27.7211
792.253	16.0718
795.146	13.147
798.039	1.90836
800.932	4.09381
803.824	26.8683
806.717	27.6521
809.61	28.5124
812.502	19.1696
815.395	2.80341
818.288	10.5949
821.18	12.3094
824.073	24.7891
826.966	33.0112
829.859	7.86795
832.751	12.9728
835.644	32.4301
838.537	33.1637
841.429	61.6218
844.322	70.4809
847.215	56.8149
850.107	59.416
853	51.7433
855.893	36.159
858.785	9.58316
861.678	21.3962
864.571	38.7588
867.464	32.6305
870.356	23.0276
873.249	16.5571
876.142	21.3493
879.034	29.2047
881.927	24.1811
884.82	25.5133
887.712	6.58472
890.605	5.31632
893.498	16.0104
896.391	18.6026
899.283	13.2433
902.176	48.4612
905.069	43.0175
907.961	12.3654
910.854	31.9092
913.747	10.8892
916.639	32.4183
919.532	28.1224
922.425	35.1248
925.318	57.8589
928.21	55.8814
931.103	74.3165
933.996	84.9497
936.888	95.0043
939.781	80.7144
942.674	92.8155
945.567	110.358
948.459	123.749
951.352	101.736
954.245	105.474
957.137	89.0875
960.03	94.882
962.923	94.3827
965.815	73.4595
968.708	49.4241
971.601	97.4968
974.494	74.742
977.386	34.8362
980.279	51.9429
983.172	54.0765
986.064	69.8412
988.957	44.9884
991.85	2.41562
994.742	24.4353
997.635	26.597
1000.53	16.3307
1003.42	27.9335
1006.31	43.0759
1009.21	46.7018
1012.1	18.4024
1014.99	18.7928
1017.88	2.27118
1020.78	22.6671
1023.67	6.15692
1026.56	14.6735
1029.45	1.31815
1032.35	2.46838
1035.24	24.8087
1038.13	7.37164
1041.03	2.98227
1043.92	14.4502
1046.81	11.1262
1049.7	11.1031
1052.6	19.1832
1055.49	24.2363
1058.38	39.3505
1061.27	68.197
1064.17	36.2503
1067.06	70.4252
1069.95	36.3565
1072.85	28.609
1075.74	50.1191
1078.63	35.5013
1081.52	46.6826
1084.42	10.2285
1087.31	33.2876
1090.2	22.3406
1093.09	1.95358
1095.99	24.8647
1098.88	17.0404
1101.77	7.2709
1104.66	32.6899
1107.56	0.585144
1110.45	1.15271
1113.34	5.02844
1116.24	7.02423
1119.13	4.11231
1122.02	14.7296
1124.91	11.7995
1127.81	24.7252
1130.7	32.5184
1133.59	15.8813
1136.48	7.01416
1139.38	33.4072
1142.27	8.40021
1145.16	16.0823
1148.06	23.0043
1150.95	30.8803
1153.84	20.4087
1156.73	5.7345
1159.63	10.2917
1162.52	3.65122
1165.41	42.4357
1168.3	23.5375
1171.2	7.9404
1174.09	5.9397
1176.98	34.1694
1179.88	33.5178
1182.77	16.9426
1185.66	15.4957
1188.55	25.2024
1191.45	47.115
1194.34	24.7745
1197.23	54.7705
1200.12	37.5435
1203.02	18.9421
1205.91	6.91843
1208.8	27.3387
1211.69	33.0393
1214.59	46.6575
1217.48	57.6524
1220.37	39.7937
1223.27	61.9609
1226.16	13.3596
1229.05	50.7429
1231.94	21.0191
1234.84	19.5972
1237.73	27.8435
1240.62	60.995
1243.51	6.97073
1246.41	28.5549
1249.3	32.2019
1252.19	36.4824
1255.09	42.1067
1257.98	17.3572
1260.87	19.7063
1263.76	0
