Measurement: Raman, 532 nm, unoriented, Raman Data Processed
Mineral: Shirozulite
Rruff sample: R070135
Ideal chemistry: KMn^2+^_3_(Si_3_Al)O_10_(OH)_2_
Locality: Bikkulovskoe deposit, south Urals, Russia
Source: Michael Scott
Description: Dark red to black mica associated with quartz, stilpnomelane and parsettensite
Raman shift (cm-1)	intensity
183.767	0
186.659	70.1263
189.552	50.9244
192.445	19.755
195.338	8.47461
198.23	4.87744
201.123	27.0431
204.016	22.9993
206.908	26.6304
209.801	23.5016
212.694	15.3117
215.586	13.2034
218.479	7.04272
221.372	3.53442
224.264	39.0004
227.157	52.1366
230.05	46.3192
232.943	41.7531
235.835	70.4082
238.728	27.5565
241.621	40.135
244.513	33.7479
247.406	80.9385
250.299	61.9969
253.191	87.7711
256.084	83.7048
258.977	88.8144
261.87	97.5157
264.762	92.3126
267.655	99.1888
270.548	105.785
273.44	109.35
276.333	111.002
279.226	45.7045
282.118	72.2694
285.011	80.6461
287.904	82.6152
290.796	63.4397
293.689	59.8085
296.582	47.6025
299.475	54.3778
302.367	60.7719
305.26	23.7533
308.153	37.0786
311.045	28.9972
313.938	18.2902
316.831	12.0335
319.724	21.6603
322.616	7.29627
325.509	36.9973
328.402	8.13538
331.294	35.6653
334.187	10.7155
337.08	1.20984
339.972	45.8712
342.865	19.3699
345.758	33.4995
348.651	89.5963
351.543	72.3757
354.436	88.9734
357.329	73.8623
360.221	112.308
363.114	155.351
366.007	204.764
368.899	235.381
371.792	238.08
374.685	270.388
377.577	269.904
380.47	296.158
383.363	300.091
386.256	274.837
389.148	265.684
392.041	210.094
394.934	205.922
397.826	208.001
400.719	178.845
403.612	139.503
406.505	129.859
409.397	92.8031
412.29	89.9077
415.183	49.4514
418.075	66.6857
420.968	0.816528
423.861	1.65625
426.753	9.60474
429.646	26.0901
432.539	4.25598
435.432	8.92969
438.324	0.267456
441.217	12.4562
444.11	1.35022
447.002	17.7484
449.895	14.584
452.788	33.4523
455.68	0.948853
458.573	35.7022
461.466	85.0642
464.358	94.1741
467.251	79.9655
470.144	111.7
473.037	180.226
475.929	188.32
478.822	284.236
481.715	315.423
484.607	383.819
487.5	492.156
490.393	573.684
493.286	585.604
496.178	656.814
499.071	679.847
501.964	707.929
504.856	701.881
507.749	700.556
510.642	676.341
513.534	699.323
516.427	653.457
519.32	638.564
522.212	640.273
525.105	564.516
527.998	574.153
530.891	500.543
533.783	483.78
536.676	454.555
539.569	449.209
542.461	342.541
545.354	310.528
548.247	263.851
551.139	213.411
554.032	215.817
556.925	197.527
559.818	156.091
562.71	125.978
565.603	105.431
568.496	105.934
571.388	65.2017
574.281	91.7673
577.174	70.8768
580.067	110.419
582.959	55.8673
585.852	84.5587
588.745	67.5912
591.637	50.7338
594.53	56.556
597.423	44.407
600.315	22.5896
603.208	11.4415
606.101	11.6555
608.994	28.7141
611.886	7.50214
614.779	12.1442
617.672	7.60651
620.564	2.04523
623.457	0.986145
626.35	30.9133
629.242	64.348
632.135	113.578
635.028	122.441
637.92	166.892
640.813	183.368
643.706	202.047
646.599	226.025
649.491	241.055
652.384	236.918
655.277	261.307
658.169	251.001
661.062	256.243
663.955	160.261
666.847	126.438
669.74	115.756
672.633	64.524
675.525	61.3892
678.418	33.2097
681.311	38.924
684.204	19.4014
687.096	12.9204
689.989	13.972
692.882	23.7606
695.774	27.4562
698.667	23.5414
701.56	16.5114
704.452	16.1079
707.345	1.87616
710.238	26.3262
713.131	1.68982
716.023	41.6875
718.916	27.2834
721.809	23.8135
724.701	32.4187
727.594	33.9715
730.487	42.841
733.38	43.3944
736.272	55.6726
739.165	22.5532
742.058	54.5571
744.95	45.5737
747.843	32.386
750.736	41.1389
753.628	3.31006
756.521	34.3143
759.414	62.0114
762.307	29.0578
765.199	34.4755
768.092	63.0066
770.985	42.4302
773.877	56.8152
776.77	51.7411
779.663	55.2207
782.555	53.3181
785.448	57.2728
788.341	46.6586
791.234	55.5743
794.126	41.831
797.019	47.3425
799.912	28.0717
802.804	21.0695
805.697	50.6698
808.59	15.8136
811.482	17.0956
814.375	9.37006
817.268	16.0169
820.16	7.46497
823.053	13.3283
825.946	22.3708
828.839	0.85083
831.731	16.182
834.624	10.1899
837.517	0.593079
840.409	36.8779
843.302	31.5155
846.195	16.7977
849.087	67.4927
851.98	0.543701
854.873	15.7267
857.766	26.8254
860.658	43.1305
863.551	37.2951
866.444	28.0904
869.336	64.95
872.229	53.1309
875.122	47.9683
878.014	63.7783
880.907	58.524
883.8	37.3317
886.693	66.5613
889.585	32.9984
892.478	63.8923
895.371	54.5886
898.263	60.2346
901.156	71.676
904.049	54.3478
906.942	53.2851
909.834	78.7353
912.727	91.4309
915.62	94.9233
918.512	52.3394
921.405	44.4658
924.298	74.8328
927.19	51.8431
930.083	80.6303
932.976	83.9482
935.869	60.7668
938.761	80.7986
941.654	61.6583
944.547	27.1771
947.439	16.622
950.332	16.7488
953.225	57.758
956.117	14.7025
959.01	1.92218
961.903	4.95972
964.795	12.7059
967.688	21.1201
970.581	7.50787
973.474	21.4404
976.366	1.57227
979.259	4.83948
982.152	24.5935
985.044	12.9318
987.937	32.3649
990.83	28.2722
993.722	35.7448
996.615	24.3852
999.508	32.2375
1002.4	31.641
1005.29	21.0914
1008.19	60.1804
1011.08	45.3541
1013.97	66.799
1016.86	104.528
1019.76	57.9379
1022.65	92.225
1025.54	56.7449
1028.43	58.7919
1031.33	32.5004
1034.22	68.7402
1037.11	44.1119
1040.01	23.6443
1042.9	7.89758
1045.79	29.2058
1048.68	18.5443
1051.58	9.02277
1054.47	18.3056
1057.36	23.2785
1060.26	10.8448
1063.15	12.155
1066.04	14.6776
1068.93	4.72852
1071.83	8.59076
1074.72	6.41956
1077.61	16.2658
1080.5	36.1647
1083.4	12.002
1086.29	33.2778
1089.18	39.1171
1092.07	28.5955
1094.97	31.5845
1097.86	33.7462
1100.75	28.8141
1103.64	12.6989
1106.54	22.5907
1109.43	34.0731
1112.32	43.6152
1115.22	38.6538
1118.11	41.9614
1121	48.7212
1123.89	37.4368
1126.79	57.8456
1129.68	24.1539
1132.57	74.6451
1135.46	75.8389
1138.36	58.7817
1141.25	52.4673
1144.14	57.8725
1147.04	34.2361
1149.93	59.5427
1152.82	57.5676
1155.71	58.5341
1158.61	26.6247
1161.5	63.1942
1164.39	24.3981
1167.28	44.5521
1170.18	47.3149
1173.07	15.6245
1175.96	46.3732
1178.86	17.6989
1181.75	0.099182
1184.64	36.2515
1187.53	5.38489
1190.43	35.1366
1193.32	5.80652
1196.21	29.8007
1199.1	19.2932
1202	17.9252
1204.89	24.4758
1207.78	25.0659
1210.67	19.0264
1213.57	4.78711
1216.46	1.21985
1219.35	10.8027
1222.25	2.73273
1225.14	10.614
1228.03	24.3483
1230.92	28.1516
1233.82	26.5104
1236.71	19.6487
1239.6	34.6975
1242.49	15.0712
1245.39	32.3376
1248.28	19.8102
1251.17	15.8679
1254.07	13.5214
1256.96	26.0894
1259.85	27.0193
1262.74	26.9373
1265.64	34.0843
1268.53	22.6726
1271.42	29.0194
1274.31	5.16736
