Measurement: Raman, 780 nm, unoriented, Raman Data Processed
Mineral: Shirozulite
Rruff sample: R070135
Ideal chemistry: KMn^2+^_3_(Si_3_Al)O_10_(OH)_2_
Locality: Bikkulovskoe deposit, south Urals, Russia
Source: Michael Scott
Description: Dark red to black mica associated with quartz, stilpnomelane and parsettensite
Raman shift (cm-1)	intensity
177.859	0
180.752	75.9727
183.645	46.3525
186.538	101.437
189.43	90.6387
192.323	66.1421
195.216	136.729
198.108	94.9927
201.001	41.273
203.894	45.1226
206.786	6.85596
209.679	15.1597
212.572	52.8848
215.465	18.2432
218.357	41.5625
221.25	35.5552
224.143	166.767
227.035	131.953
229.928	165.878
232.821	125.22
235.714	156.916
238.606	178.504
241.499	216.92
244.392	244.111
247.284	280.107
250.177	234.041
253.07	324.788
255.962	355.462
258.855	308.554
261.748	318.886
264.64	391.421
267.533	385.426
270.426	404.32
273.319	431.128
276.211	441.175
279.104	396.959
281.997	390.657
284.889	323.384
287.782	383.39
290.675	345.812
293.567	291.241
296.46	258.655
299.353	270.746
302.246	219.754
305.138	230.26
308.031	172.996
310.924	128.519
313.816	137.123
316.709	107.867
319.602	38.6977
322.495	47.1987
325.387	45.7026
328.28	3.4668
331.173	35.2954
334.065	4.83789
336.958	68.3115
339.851	6.34521
342.743	1.94824
345.636	57.2105
348.529	106.813
351.421	145.749
354.314	143.212
357.207	223.911
360.1	237.004
362.992	293.341
365.885	368.417
368.778	441.508
371.67	550.274
374.563	573.615
377.456	741.536
380.349	650.033
383.241	775.891
386.134	514.732
389.027	452.794
391.919	375.403
394.812	414.052
397.705	298.442
400.597	226.685
403.49	221.301
406.383	165.731
409.276	84.708
412.168	49.9526
415.061	63.0537
417.954	31.0337
420.846	25.6348
423.739	27.0928
426.632	26.6606
429.524	20.8145
432.417	16.0283
435.31	1.47217
438.202	13.8726
441.095	23.853
443.988	14.2876
446.881	67.4985
449.773	50.2769
452.666	119.498
455.559	43.8169
458.451	127.537
461.344	168.657
464.237	198.046
467.13	227.847
470.022	292.485
472.915	285.937
475.808	365.672
478.7	490.257
481.593	567.814
484.486	729.874
487.378	820.04
490.271	929.582
493.164	1091.12
496.057	1187.34
498.949	1294.52
501.842	1316.53
504.735	1416.65
507.627	1429.69
510.52	1420.04
513.413	1467.33
516.305	1367.98
519.198	1429.09
522.091	1300.22
524.984	1226.88
527.876	1266.33
530.769	1147.29
533.662	1048.87
536.554	936.862
539.447	806.25
542.34	739.882
545.232	642.002
548.125	526.349
551.018	444.508
553.91	357.396
556.803	301.447
559.696	258.424
562.589	145.541
565.481	82.0659
568.374	103.219
571.267	26.1377
574.159	2.76172
577.052	7.6084
579.945	13.0049
582.837	7.79883
585.73	57.1704
588.623	11.7217
591.516	3.43652
594.408	26.0518
597.301	22.6909
600.194	65.7063
603.086	63.364
605.979	44.978
608.872	37.6194
611.764	94.0408
614.657	77.9595
617.55	152.192
620.443	226.269
623.335	296.737
626.228	336.379
629.121	540.69
632.013	592.37
634.906	676.293
637.799	812.882
640.692	928.946
643.584	963.447
646.477	1052.49
649.37	1066.51
652.262	1109.32
655.155	1071.86
658.048	988.853
660.94	918.931
663.833	799.898
666.726	635.363
669.619	479.871
672.511	366.74
675.404	223.006
678.297	141.509
681.189	89.291
684.082	51.3281
686.975	12.9248
689.867	22.45
692.76	41.8765
695.653	7.33789
698.545	6.51733
701.438	18.0842
704.331	23.708
707.224	14.082
710.116	17.561
713.009	29.0774
715.902	54.6987
718.794	72.5759
721.687	62.7249
724.58	80.6794
727.472	73.0955
730.365	77.5813
733.258	61.4128
736.151	82.616
739.043	92.8823
741.936	92.1802
744.829	141.828
747.721	79.2012
750.614	66.2964
753.507	97.5713
756.399	49.7207
759.292	46.3726
762.185	44.1726
765.078	49.813
767.97	21.7566
770.863	66.0703
773.756	50.9126
776.648	56.8103
779.541	48.8403
782.434	66.687
785.327	74.0425
788.219	55.481
791.112	36.1377
794.005	11.9331
796.897	39.1592
799.79	19.7773
802.683	47.6062
805.575	11.4065
808.468	27.1904
811.361	26.2707
814.254	37.1831
817.146	32.3074
820.039	4.74121
822.932	0.900879
825.824	7.2251
828.717	35.3337
831.61	10.0894
834.502	12.6858
837.395	14.8281
840.288	26.595
843.181	32.644
846.073	31.8772
848.966	36.7034
851.859	3.14941
854.751	2.48706
857.644	50.0198
860.537	39.654
863.429	29.0593
866.322	58.7727
869.215	51.2529
872.107	14.7593
875	90.4477
877.893	70.271
880.786	54.386
883.678	49.7087
886.571	49.4961
889.464	61.8015
892.356	76.9851
895.249	90.5603
898.142	27.821
901.034	100.347
903.927	36.1431
906.82	75.9807
909.713	60.9148
912.605	77.3601
915.498	65.7678
918.391	67.2615
921.283	91.8945
924.176	69.3726
927.069	89.5271
929.962	123.513
932.854	110.127
935.747	79.5532
938.64	105.698
941.532	51.1321
944.425	66.2607
947.318	80.1562
950.21	93.5576
953.103	37.9648
955.996	28.7117
958.889	52.7703
961.781	20.5408
964.674	0.312744
967.567	59.5076
970.459	11.6326
973.352	26.4856
976.245	35.6665
979.137	26.3281
982.03	20.0193
984.923	10.5185
987.816	19.2764
990.708	5.40308
993.601	19.2131
996.494	24.8684
999.386	18.9319
1002.28	43.6577
1005.17	86.3533
1008.06	93.9292
1010.96	94.4348
1013.85	120.631
1016.74	143.277
1019.63	119.851
1022.53	166.831
1025.42	103.249
1028.31	86.0923
1031.21	67.6929
1034.1	72.1929
1036.99	51.8728
1039.88	70.7573
1042.78	53.3398
1045.67	47.0701
1048.56	47.7085
1051.45	25.1589
1054.35	12.2351
1057.24	28.1594
1060.13	22.833
1063.03	15.7417
1065.92	28.9382
1068.81	39.9722
1071.7	5.46314
1074.6	40.4202
1077.49	14.1782
1080.38	32.9438
1083.28	22.6668
1086.17	18.8005
1089.06	21.592
1091.95	8.52734
1094.85	3.52026
1097.74	40.3796
1100.63	26.2507
1103.52	30.937
1106.42	31.5198
1109.31	33.5322
1112.2	65.4485
1115.09	34.1885
1117.99	60.3
1120.88	60.4526
1123.77	8.76001
1126.66	78.9434
1129.56	51.1567
1132.45	55.5459
1135.34	47.0652
1138.24	87.9189
1141.13	49.8694
1144.02	79.5889
1146.91	97.0967
1149.81	90.1313
1152.7	75.1953
1155.59	41.6624
1158.48	71.6987
1161.38	60.417
1164.27	44.4739
1167.16	85.0569
1170.06	40.6992
1172.95	37.7781
1175.84	78.9898
1178.73	20.0046
1181.63	55.501
1184.52	98.9141
1187.41	48.1758
1190.3	18.314
1193.2	42.1685
1196.09	51.467
1198.98	22.1023
1201.88	36.3935
1204.77	68.8784
1207.66	11.5234
1210.55	62.7849
1213.45	33.7419
1216.34	7.81006
1219.23	44.4001
1222.12	69.896
1225.02	20.2532
1227.91	19.7678
1230.8	39.4526
1233.69	23.1829
1236.59	61.6533
1239.48	0.302979
1242.37	34.5466
1245.27	57.3547
1248.16	72.8938
1251.05	68.5286
1253.94	32.1492
1256.84	16.991
1259.73	20.853
1262.62	78.8513
1265.52	46.1775
1268.41	22.3613
1271.3	27.5811
