Measurement: Raman, 532 nm, unoriented, Raman Data Processed
Mineral: Shkatulkalite
Rruff sample: R110193
Ideal chemistry: Na_10_Mn^2+^Ti^4+^_3_Nb^5+^_3_(Si_2_O_7_)_6_(OH)_2_F12H_2_O
Locality: Demix-Varennes quarry, Saint-Amable sill, Varennes & St-Amable, Lajemmerais RCM, Monteregie, Quebec, Canada
Source: Donald Doell
Description: Pale yellow platy
Raman shift (cm-1)	intensity
185.951	0
188.844	4.67526
191.737	5.98517
194.629	1.07791
197.522	0.905914
200.415	8.98428
203.308	8.15146
206.2	7.55826
209.093	5.19928
211.986	4.45096
214.878	2.14185
217.771	5.57123
220.664	6.35025
223.556	9.26135
226.449	9.87009
229.342	9.27371
232.234	8.94916
235.127	10.4081
238.02	9.68866
240.913	9.98459
243.805	13.9421
246.698	12.6693
249.591	16.9609
252.483	15.6622
255.376	18.8326
258.269	20.8599
261.161	19.1599
264.054	21.8395
266.947	22.4622
269.84	22.0379
272.732	24.9861
275.625	28.712
278.518	25.0794
281.41	26.7371
284.303	22.3575
287.196	22.8961
290.089	17.8283
292.981	19.6794
295.874	15.2655
298.767	18.1029
301.659	16.7016
304.552	15.2791
307.445	13.8
310.337	9.38156
313.23	9.78314
316.123	12.7351
319.015	9.45196
321.908	7.61887
324.801	4.54782
327.694	4.68185
330.586	8.24579
333.479	1.03064
336.372	6.12543
339.264	6.83469
342.157	4.64407
345.05	3.66446
347.942	2.36066
350.835	2.18249
353.728	3.59686
356.621	1.73117
359.513	1.13367
362.406	1.46918
365.299	0.748291
368.191	1.61169
371.084	0.082062
373.977	3.64038
376.87	4.59168
379.762	1.56705
382.655	4.19574
385.548	7.63174
388.44	9.90198
391.333	13.9009
394.226	13.8771
397.118	18.6125
400.011	16.7158
402.904	13.415
405.796	11.9472
408.689	10.2481
411.582	7.80161
414.475	6.41925
417.367	2.08884
420.26	1.88998
423.153	0.585205
426.045	0.133942
428.938	0.68042
431.831	1.78116
434.724	5.76746
437.616	9.3125
440.509	12.171
443.402	15.9706
446.294	12.8945
449.187	17.2281
452.08	21.5578
454.972	17.9654
457.865	22.5099
460.758	18.0814
463.651	18.2986
466.543	15.9961
469.436	12.107
472.329	14.9045
475.221	15.3885
478.114	14.8878
481.007	12.8738
483.899	13.8067
486.792	13.4255
489.685	12.308
492.577	12.6457
495.47	8.86072
498.363	6.70041
501.256	5.939
504.148	0.64386
507.041	0.743439
509.934	1.24869
512.826	2.35675
515.719	1.83484
518.612	1.16281
521.505	3.32028
524.397	2.73502
527.29	7.3273
530.183	4.34992
533.075	4.57517
535.968	3.05881
538.861	3.13864
541.753	4.02338
544.646	8.50809
547.539	7.47934
550.432	11.1373
553.324	15.4504
556.217	24.838
559.11	35.3751
562.002	41.2775
564.895	53.9289
567.788	67.5166
570.68	78.2798
573.573	91.0108
576.466	95.5928
579.359	97.0282
582.251	93.9775
585.144	83.5199
588.037	73.792
590.929	62.8328
593.822	55.6274
596.715	50.4878
599.607	43.9492
602.5	33.7209
605.393	31.549
608.285	26.0167
611.178	24.8465
614.071	23.4693
616.964	15.2251
619.856	16.9312
622.749	10.7133
625.642	8.02725
628.534	6.99936
631.427	0.998749
634.32	3.01193
637.212	4.4223
640.105	1.38147
642.998	1.40085
645.891	0.978271
648.783	1.34195
651.676	1.53506
654.569	1.64905
657.461	1.42435
660.354	0.313446
663.247	0.116425
666.139	4.42374
669.032	4.34055
671.925	3.06131
674.818	6.05576
677.71	5.11099
680.603	7.96716
683.496	10.5513
686.388	12.591
689.281	15.7914
692.174	17.3667
695.067	21.0094
697.959	18.7118
700.852	22.9722
703.745	18.283
706.637	23.7549
709.53	22.8902
712.423	24.2752
715.315	22.8221
718.208	20.8063
721.101	19.4532
723.994	19.4959
726.886	16.376
729.779	16.2169
732.672	10.0312
735.564	7.40265
738.457	6.61423
741.35	3.76559
744.242	0.366638
747.135	1.05673
750.028	0.289032
752.92	1.84296
755.813	1.41641
758.706	0.834229
761.599	0.632355
764.491	1.81958
767.384	0.819031
770.277	2.93951
773.169	1.97159
776.062	0.323273
778.955	3.24585
781.847	0.97998
784.74	0.355804
787.633	5.74155
790.526	0.915741
793.418	6.19653
796.311	6.0607
799.204	3.60306
802.096	4.16504
804.989	7.18957
807.882	9.49713
810.774	6.00275
813.667	9.80432
816.56	14.3501
819.453	16.6071
822.345	20.3033
825.238	24.1446
828.131	26.4094
831.023	30.489
833.916	35.8712
836.809	38.9674
839.702	41.0606
842.594	45.593
845.487	48.0496
848.38	52.3959
851.272	51.7634
854.165	58.7592
857.058	60.457
859.95	65.2377
862.843	65.5345
865.736	67.9538
868.629	71.244
871.521	79.689
874.414	82.3888
877.307	86.6762
880.199	92.3857
883.092	94.8885
885.985	102.254
888.877	109.823
891.77	112.539
894.663	110.264
897.556	109.373
900.448	101.35
903.341	98.9221
906.234	96.232
909.126	92.5054
912.019	86.9895
914.912	86.9857
917.804	86.8017
920.697	85.5076
923.59	82.2604
926.482	79.747
929.375	77.1424
932.268	65.9021
935.161	59.1337
938.053	50.7164
940.946	45.5173
943.839	39.6663
946.731	29.9211
949.624	22.2531
952.517	15.9105
955.409	7.9324
958.302	3.78259
961.195	0.361542
964.088	1.97232
966.98	2.4465
969.873	4.17865
972.766	6.02801
975.658	3.22562
978.551	3.29846
981.444	1.16052
984.337	3.33664
987.229	4.4928
990.122	7.7558
993.015	9.6152
995.907	13.6884
998.8	12.6733
1001.69	14.644
1004.59	15.7196
1007.48	17.6667
1010.37	18.2788
1013.26	17.4387
1016.16	14.2734
1019.05	14.8401
1021.94	14.5384
1024.83	13.7379
1027.73	13.6742
1030.62	10.2624
1033.51	6.64102
1036.4	11.7209
1039.3	2.58258
1042.19	3.15573
1045.08	1.06567
1047.98	4.87402
1050.87	4.39169
1053.76	4.58884
1056.65	5.98883
1059.55	7.12283
1062.44	6.63962
1065.33	9.05878
1068.22	7.22922
1071.12	9.78015
1074.01	8.4805
1076.9	9.21188
1079.8	9.01694
1082.69	6.30121
1085.58	7.71512
1088.47	5.96725
1091.37	4.11661
1094.26	3.37826
1097.15	4.19724
1100.04	6.79456
1102.94	4.90533
1105.83	3.36841
1108.72	1.67819
1111.62	4.21616
1114.51	4.23917
1117.4	3.60632
1120.29	3.06317
1123.19	4.56546
1126.08	2.64526
1128.97	1.43231
1131.86	1.53113
1134.76	1.15784
1137.65	1.4436
1140.54	2.80743
1143.43	1.6907
1146.33	1.95001
1149.22	1.00305
1152.11	0.714752
1155.01	3.64471
1157.9	1.27063
1160.79	1.07053
1163.68	1.70548
1166.58	2.05194
1169.47	0.537689
1172.36	4.40662
1175.26	4.61618
1178.15	1.66363
1181.04	1.85614
1183.93	5.67642
1186.83	1.21188
1189.72	1.2424
1192.61	0.002991
1195.5	3.8378
1198.4	3.41269
1201.29	1.84378
1204.18	3.40286
1207.07	1.70429
1209.97	4.28714
1212.86	3.75613
1215.75	4.52484
1218.64	0.307648
1221.54	1.73602
1224.43	4.00528
1227.32	3.44318
1230.22	1.54215
1233.11	1.55655
1236	0.472076
1238.89	4.99594
1241.79	2.71927
1244.68	0.640747
1247.57	3.45551
1250.46	1.26733
1253.36	3.02618
1256.25	0.527832
1259.14	3.40353
1262.04	0.221893
1264.93	1.34357
1267.82	2.03595
1270.71	3.10947
1273.61	0.816559
1276.5	2.10681
1279.39	3.30908
1282.29	1.50299
1285.18	1.85791
1288.07	4.01764
1290.96	5.40018
1293.86	6.60416
1296.75	3.14639
1299.64	3.84433
1302.53	1.50055
