Measurement: Raman, 780 nm, unoriented, Raman Data Processed
Mineral: Shkatulkalite
Rruff sample: R110193
Ideal chemistry: Na_10_Mn^2+^Ti^4+^_3_Nb^5+^_3_(Si_2_O_7_)_6_(OH)_2_F12H_2_O
Locality: Demix-Varennes quarry, Saint-Amable sill, Varennes & St-Amable, Lajemmerais RCM, Monteregie, Quebec, Canada
Source: Donald Doell
Description: Pale yellow platy
Raman shift (cm-1)	intensity
244.435	0
247.327	1.76373
250.22	3.48743
253.113	0.998413
256.005	3.3678
258.898	4.55652
261.791	7.80908
264.683	6.98535
267.576	9.43665
270.469	14.7328
273.361	12.2224
276.254	16.8933
279.147	17.5635
282.04	24.3145
284.932	23.1283
287.825	25.5103
290.718	23.1395
293.61	23.4492
296.503	19.21
299.396	20.5879
302.288	20.0158
305.181	19.9638
308.074	25.8262
310.967	20.0348
313.859	17.3555
316.752	18.4616
319.645	15.7767
322.537	11.9953
325.43	9.29688
328.323	9.62634
331.216	6.52686
334.108	4.54925
337.001	8.05658
339.894	5.49829
342.786	7.75873
345.679	4.4303
348.572	2.54688
351.464	1.97717
354.357	2.82104
357.25	5.02942
360.142	1.43744
363.035	0.028259
365.928	1.19403
368.821	0.113647
371.713	1.15137
374.606	0.781433
377.499	2.21271
380.391	0.594421
383.284	3.09009
386.177	6.88721
389.07	13.8613
391.962	9.94226
394.855	6.23822
397.748	12.5109
400.64	11.4547
403.533	10.7302
406.426	8.41083
409.318	9.69251
412.211	4.57709
415.104	5.83423
417.997	2.56635
420.889	1.62109
423.782	3.90851
426.675	2.14056
429.567	0.264709
432.46	2.4682
435.353	4.0434
438.245	8.83777
441.138	13.2542
444.031	18.835
446.923	17.9787
449.816	18.1399
452.709	24.4987
455.602	17.3636
458.494	21.3613
461.387	21.1415
464.28	20.6078
467.172	17.622
470.065	18.411
472.958	15.5124
475.851	13.6678
478.743	15.3986
481.636	13.8626
484.529	14.1146
487.421	15.8225
490.314	11.8247
493.207	9.88867
496.099	10.6274
498.992	4.86188
501.885	4.6471
504.777	5.0119
507.67	4.39288
510.563	3.90167
513.456	3.12012
516.348	4.43665
519.241	3.78442
522.134	0.76355
525.026	1.85144
527.919	2.7467
530.812	1.61536
533.705	3.06024
536.597	0.838196
539.49	1.9538
542.383	2.42896
545.275	1.8476
548.168	1.70429
551.061	4.2251
553.953	7.89941
556.846	8.5285
559.739	11.8049
562.631	13.2863
565.524	17.7859
568.417	27.5007
571.31	27.3917
574.202	29.2718
577.095	33.7914
579.988	36.4787
582.88	31.7652
585.773	27.7976
588.666	21.6967
591.558	21.4852
594.451	16.4794
597.344	14.8389
600.237	9.1286
603.129	7.8971
606.022	8.14636
608.915	8.96399
611.807	8.16663
614.7	3.09509
617.593	5.14062
620.486	3.4848
623.378	0.06134
626.271	0.370239
629.164	0.72821
632.056	1.92877
634.949	2.87152
637.842	3.41364
640.734	3.06555
643.627	0.493713
646.52	4.51166
649.413	6.1629
652.305	4.00665
655.198	4.11011
658.091	0.368713
660.983	2.89123
663.876	0.74469
666.769	2.93042
669.661	4.23096
672.554	3.17041
675.447	5.22876
678.34	3.02557
681.232	4.69421
684.125	5.72388
687.018	4.78064
689.91	4.01196
692.803	7.95264
695.696	5.80774
698.588	5.284
701.481	4.91211
704.374	9.46649
707.266	14.0228
710.159	13.9313
713.052	11.5784
715.945	16.5783
718.837	15.4066
721.73	15.4958
724.623	17.2554
727.515	13.697
730.408	12.6766
733.301	13.2372
736.193	11.6349
739.086	7.66138
741.979	4.69861
744.872	5.24237
747.764	4.61536
750.657	0.660278
753.55	0.482178
756.442	1.81934
759.335	0.506958
762.228	3.44238
765.12	0.465027
768.013	1.55389
770.906	3.71765
773.799	1.19562
776.691	0.999695
779.584	0.271912
782.477	1.94568
785.369	0.545715
788.262	0.675781
791.155	3.50427
794.048	1.35095
796.94	0.618286
799.833	2.60101
802.726	0.176758
805.618	3.18799
808.511	4.00122
811.404	3.63769
814.296	2.1087
817.189	4.24176
820.082	7.8894
822.975	8.79291
825.867	4.9195
828.76	7.7099
831.653	6.87646
834.545	11.9103
837.438	13.8517
840.331	12.8625
843.223	14.7562
846.116	12.7672
849.009	15.2579
851.902	21.2488
854.794	19.0831
857.687	27.7152
860.58	25.6824
863.472	33.6298
866.365	32.7625
869.258	32.5951
872.15	37.7452
875.043	44.9942
877.936	44.5402
880.829	47.3604
883.721	55.0832
886.614	64.7092
889.507	62.0956
892.399	72.1842
895.292	68.3227
898.185	65.5566
901.077	71.381
903.97	71.9914
906.863	75.1085
909.756	78.4728
912.648	79.4796
915.541	76.7358
918.434	80.0737
921.326	77.4237
924.219	74.1826
927.112	74.1912
930.005	70.0364
932.897	67.8595
935.79	65.7116
938.683	58.0021
941.575	53.6854
944.468	45.5401
947.361	33.9906
950.253	30.0096
953.146	22.8713
956.039	21.4956
958.932	8.7915
961.824	9.06824
964.717	2.3559
967.61	3.1239
970.502	0.683838
973.395	0.342712
976.288	1.86224
979.18	4.31989
982.073	2.38428
984.966	2.33539
987.859	2.06134
990.751	1.76422
993.644	3.33478
996.537	0.610779
999.429	2.46942
1002.32	1.09405
1005.22	7.63452
1008.11	8.08081
1011	5.28876
1013.89	7.75128
1016.78	5.31482
1019.68	10.7309
1022.57	8.82336
1025.46	10.9035
1028.36	8.55621
1031.25	9.27393
1034.14	13.2268
1037.03	11.7684
1039.93	7.96954
1042.82	8.22095
1045.71	8.41718
1048.61	9.46185
1051.5	3.93707
1054.39	6.23602
1057.28	6.04297
1060.18	10.1623
1063.07	9.58978
1065.96	9.93384
1068.85	11.152
1071.75	12.1518
1074.64	13.1809
1077.53	8.01526
1080.42	8.47699
1083.32	8.57117
1086.21	10.6445
1089.1	14.8649
1092	6.98438
1094.89	12.2447
1097.78	6.67871
1100.67	6.46277
1103.57	8.5578
1106.46	4.81781
1109.35	7.46631
1112.24	1.05597
1115.14	1.15228
1118.03	0.892151
1120.92	0.811951
1123.82	0.382324
1126.71	4.75024
1129.6	6.02618
1132.49	5.09296
1135.39	6.7771
1138.28	8.15479
1141.17	7.24786
1144.06	2.60077
1146.96	6.19727
1149.85	7.08002
1152.74	8.17773
1155.63	2.56763
1158.53	5.91046
1161.42	6.26318
1164.31	4.18133
1167.21	5.07434
1170.1	10.1624
1172.99	7.45038
1175.88	4.44928
1178.78	4.22443
1181.67	4.63983
1184.56	3.48804
1187.45	4.25342
1190.35	7.09546
1193.24	5.21283
1196.13	7.20856
1199.03	6.38489
1201.92	7.24664
1204.81	7.32422
1207.7	3.19183
1210.6	5.77087
1213.49	5.02405
1216.38	5.61365
1219.27	1.77722
1222.17	1.32385
1225.06	0.901428
1227.95	2.71435
1230.85	3.18011
1233.74	2.33618
1236.63	1.12903
1239.52	1.11664
1242.42	0.221313
1245.31	1.85266
1248.2	0.191528
1251.09	0.238708
1253.99	2.32843
1256.88	1.05444
1259.77	4.15832
1262.66	5.43726
1265.56	8.05713
1268.45	8.11529
1271.34	1.87573
1274.24	6.98987
1277.13	2.19611
1280.02	1.94721
1282.91	5.91211
