Measurement: Raman, 785 nm, unoriented, Raman Data Processed
Mineral: Shuiskite-(Mg)
Rruff sample: R070109
Ideal chemistry: Ca_2_MgCr^3+^_2_(SiO_4_)(Si_2_O_7_)(OH)_2_H_2_O
Locality: Sarnay, Ural, Russia
Source: Bob Jenkins
Description: Aggregates of brownish-gray fibrous prismatic crystals associated with uvarovite
Raman shift (cm-1)	intensity
188.806	0
191.699	60.1807
194.592	37.7773
197.484	55.292
200.377	191.127
203.27	351.033
206.162	488.441
209.055	726.427
211.948	838.532
214.841	890.162
217.733	873.86
220.626	1045.72
223.519	1129.19
226.411	1212.94
229.304	1159
232.197	1168.47
235.089	964.836
237.982	981.611
240.875	865.914
243.768	657.653
246.66	621.588
249.553	391.891
252.446	271.649
255.338	166.145
258.231	152.301
261.124	184.398
264.017	307.916
266.909	172.312
269.802	161.283
272.695	337.177
275.587	219.5
278.48	249.023
281.373	123.194
284.265	19.2471
287.158	12.457
290.051	21.2959
292.943	17.7314
295.836	46.1523
298.729	0.993164
301.622	1.86914
304.514	58.041
307.407	61.8486
310.3	124.368
313.192	113.864
316.085	236.635
318.978	256.916
321.87	237.501
324.763	265.967
327.656	158.278
330.549	90.5361
333.441	167.372
336.334	192.329
339.227	279.702
342.119	374.928
345.012	587.831
347.905	746.294
350.798	931.005
353.69	1010.49
356.583	1051.06
359.476	960.623
362.368	758.241
365.261	671.111
368.154	829.533
371.046	756.112
373.939	743.917
376.832	554.543
379.724	437.251
382.617	418.524
385.51	204.67
388.403	152.895
391.295	91.2568
394.188	65.2422
397.081	45.123
399.973	18.584
402.866	32.9512
405.759	49.6123
408.651	90.0088
411.544	158.718
414.437	251.893
417.33	380.308
420.222	452.994
423.115	517.388
426.008	473.539
428.9	426.156
431.793	341.296
434.686	214.493
437.579	151.346
440.471	159.686
443.364	114.148
446.257	133.644
449.149	7.04004
452.042	103.231
454.935	27.2754
457.827	70.3828
460.72	32.7627
463.613	49.0986
466.505	11.4336
469.398	78.751
472.291	113.9
475.184	107.903
478.076	205.323
480.969	386.285
483.862	557.39
486.754	680.537
489.647	937.054
492.54	1100.1
495.433	1011.9
498.325	825.326
501.218	740.942
504.111	691.686
507.003	688.18
509.896	867.952
512.789	844.7
515.681	959.442
518.574	947.241
521.467	959.785
524.359	915.593
527.252	1039.8
530.145	1056.47
533.038	943.931
535.93	993.476
538.823	925.883
541.716	812.159
544.608	574.952
547.501	410.6
550.394	300.173
553.286	187.167
556.179	139.154
559.072	103.923
561.965	114.064
564.857	168.751
567.75	236.067
570.643	197.093
573.535	221.625
576.428	239.955
579.321	320.666
582.213	358.97
585.106	350.411
587.999	382.522
590.891	537.979
593.784	708.068
596.677	882.401
599.57	1078.27
602.462	1174.63
605.355	1003.94
608.248	630.187
611.14	333.972
614.033	161.652
616.926	113.281
619.818	35.9619
622.711	49.9248
625.604	74.0283
628.497	119.463
631.389	103.969
634.282	111.883
637.175	124.052
640.067	10.3281
642.96	8.27539
645.853	11.7979
648.745	1.73731
651.638	4.78613
654.531	55.2881
657.424	54.1572
660.316	45.2158
663.209	115.191
666.102	136.374
668.994	174.933
671.887	253.416
674.78	364.283
677.673	487.21
680.565	596.525
683.458	910.111
686.351	1186.18
689.243	1478.56
692.136	1603.89
695.029	1740.39
697.921	1506.35
700.814	1105.51
703.707	805.575
706.6	528.015
709.492	226.998
712.385	169.951
715.278	234.778
718.17	109.509
721.063	86.4727
723.956	147.276
726.848	102.606
729.741	47.4971
732.634	70.9951
735.527	131.951
738.419	89.2588
741.312	112.579
744.205	202.467
747.097	166.346
749.99	47.0762
752.883	77.9248
755.775	71.8398
758.668	27.8428
761.561	57.1318
764.453	64.2393
767.346	98.7891
770.239	51.9893
773.132	79.2949
776.024	47.6416
778.917	24.8418
781.81	72.7402
784.702	55.6533
787.595	113.207
790.488	7.62109
793.38	82.5527
796.273	67.0478
799.166	86.5371
802.058	57.3037
804.951	180.602
807.844	228.009
810.737	178.781
813.629	273.398
816.522	222.564
819.415	107.843
822.307	114.157
825.2	0.160156
828.093	17.1484
830.986	15.2383
833.878	27.9717
836.771	8.73047
839.664	97.7109
842.556	30.8594
845.449	83.1494
848.342	157.794
851.234	203.12
854.127	249.811
857.02	311.639
859.913	318.069
862.805	366.043
865.698	342.572
868.591	371.178
871.483	302.297
874.376	321.62
877.269	211.44
880.161	258.507
883.054	214.214
885.947	165.355
888.84	241.614
891.732	72.376
894.625	50.0498
897.518	78.7725
900.41	134.831
903.303	129.196
906.196	26.8818
909.088	127.773
911.981	61.4551
914.874	68.7793
917.766	139.286
920.659	95.3711
923.552	77.2314
926.445	123.149
929.337	13.5244
932.23	88.1709
935.123	96.4111
938.015	53.7402
940.908	42.2324
943.801	0.054688
946.693	21.6045
949.586	16.3203
952.479	32.9082
955.372	88.1953
958.264	95.3144
961.157	56.4238
964.05	78.7695
966.942	106.588
969.835	199.719
972.728	295.56
975.62	408.363
978.513	427.249
981.406	535.384
984.299	508.456
987.191	519.475
990.084	435.962
992.977	279.537
995.869	318.036
998.762	228.293
1001.65	220.805
1004.55	264.69
1007.44	293.047
1010.33	271.808
1013.23	281.482
1016.12	251.302
1019.01	155.194
1021.9	144.69
1024.8	90.9746
1027.69	42.6445
1030.58	4.25781
1033.47	89.5312
1036.37	16.4033
1039.26	29.4941
1042.15	81.4606
1045.05	49.0859
1047.94	86.8456
1050.83	99.0147
1053.72	41.0576
1056.62	112.061
1059.51	76.9502
1062.4	51.9346
1065.29	85.3897
1068.19	72.332
1071.08	94.5703
1073.97	196.592
1076.87	8.26074
1079.76	92.0957
1082.65	67.8936
1085.54	70.9092
1088.44	34.6904
1091.33	0.743164
1094.22	9.00586
1097.11	14.3486
1100.01	62.7441
1102.9	100.356
1105.79	16.6875
1108.68	81.4697
1111.58	43.8009
1114.47	51.5147
1117.36	64.9869
1120.26	91.0353
1123.15	59.3184
1126.04	124.781
1128.93	120.05
1131.83	165.67
1134.72	223.015
1137.61	133.973
1140.5	204.435
1143.4	192.245
1146.29	144.993
1149.18	129.02
1152.08	76.543
1154.97	125.392
1157.86	39.6924
1160.75	92.5586
1163.65	77.2832
1166.54	3.35938
1169.43	82.8887
1172.32	105.619
1175.22	66.4385
1178.11	36.5
1181	43.6865
1183.89	18.2119
1186.79	104.499
1189.68	101.764
1192.57	46.6728
1195.47	83.1602
1198.36	72.3516
1201.25	92.7119
1204.14	83.2598
1207.04	89.3867
1209.93	4.16309
1212.82	64.5644
1215.71	83.5195
1218.61	99.2656
1221.5	129.801
1224.39	103.86
1227.29	106.779
1230.18	78.3789
1233.07	94.7998
1235.96	4.78516
