Measurement: Raman, 532 nm, unoriented, Raman Data Processed
Mineral: Siderazot
Rruff sample: R060343
Ideal chemistry: Fe_5_N_2_
Locality: Ottaviano, Mount Vesuvius, Italy
Source: Michael Scott
Description: Silvery-white metallic coating on lava
Raman shift (cm-1)	intensity
166.359	0
169.251	77.217
172.144	88.585
175.037	53.558
177.929	100.739
180.822	48.137
183.715	1.011
186.607	89.801
189.5	62.613
192.393	45.863
195.286	69.389
198.178	99.219
201.071	112.776
203.964	115.968
206.857	84.519
209.749	96.323
212.642	93.679
215.535	106.841
218.427	80.359
221.32	47.697
224.213	89.28
227.105	2.813
229.998	41.257
232.891	47.09
235.783	21.244
238.676	39.673
241.569	1.108
244.462	9.658
247.354	79.461
250.247	96.801
253.14	2.636
256.032	36.448
258.925	58.465
261.818	54.169
264.711	119.04
267.603	194.351
270.496	136.674
273.389	44.374
276.281	99.256
279.174	162.088
282.067	203.334
284.959	230.136
287.852	220.458
290.745	301.51
293.638	238.085
296.53	211.975
299.423	274.725
302.316	274.354
305.208	269.695
308.101	293.705
310.994	279.619
313.886	262.377
316.779	214.306
319.672	201.497
322.565	219.724
325.457	143.541
328.35	268.158
331.243	185.642
334.135	175.537
337.028	142.551
339.921	166.571
342.813	244.63
345.706	131.041
348.599	132.547
351.491	181.413
354.384	144.894
357.277	98.239
360.17	112.71
363.062	82.312
365.955	48.143
368.848	112.542
371.741	40.88
374.633	76.396
377.526	151.64
380.419	26.25
383.311	53.233
386.204	93.084
389.097	110.298
391.989	89.001
394.882	105.921
397.775	36.917
400.668	13.502
403.56	8.447
406.453	16.848
409.346	7.146
412.238	3.02
415.131	98.412
418.024	38.971
420.916	88.644
423.809	57.561
426.702	41.955
429.595	29.676
432.487	38.646
435.38	15.828
438.273	18.584
441.165	21.545
444.058	17.966
446.951	40.71
449.843	112.7
452.736	120.082
455.629	194.25
458.522	160.907
461.414	217.658
464.307	340.473
467.2	444.335
470.092	610.258
472.985	876.094
475.878	985.836
478.77	1258.87
481.663	1489.31
484.556	1671.12
487.448	1823.64
490.341	1916.06
493.234	1944.68
496.127	1913.18
499.019	1807.43
501.912	1644.05
504.805	1449.59
507.698	1391
510.59	1269.57
513.483	1163.29
516.375	995.328
519.268	1041.62
522.161	1035.71
525.054	882.896
527.946	843.761
530.839	647.349
533.732	364.141
536.625	361.299
539.517	163.536
542.41	131.155
545.303	165.427
548.195	139.599
551.088	109.142
553.981	47.074
556.873	23.274
559.766	47.377
562.659	9.786
565.552	24.251
568.444	77.053
571.337	53.572
574.23	7.416
577.122	32.522
580.015	21.584
582.908	19.403
585.8	4.287
588.693	51.329
591.586	140.668
594.479	29.194
597.371	120.403
600.264	28.884
603.157	16.806
606.049	43.377
608.942	155.382
611.835	224.243
614.727	90.578
617.62	93.697
620.513	57.773
623.406	156.437
626.298	167.935
629.191	199.115
632.084	150.057
634.976	178.147
637.869	192.199
640.762	247.791
643.654	197.024
646.547	214.897
649.44	261.584
652.333	417.347
655.225	494.504
658.118	605.227
661.011	491.113
663.903	571.229
666.796	546.709
669.689	637.805
672.581	604.188
675.474	550.792
678.367	468.47
681.26	448.774
684.152	564.193
687.045	540.039
689.938	448.658
692.83	453.551
695.723	418.099
698.616	484.005
701.508	322.443
704.401	333.066
707.294	256.197
710.187	297.637
713.079	300.884
715.972	169.248
718.865	261.11
721.757	198.038
724.65	176.144
727.543	191.544
730.435	166.796
733.328	69.82
736.221	106.451
739.114	42.042
742.006	55.258
744.899	80.768
747.792	186.946
750.684	159.614
753.577	54.707
756.47	34.126
759.362	0.202
762.255	1.571
765.148	71.707
768.041	14.635
770.933	28.251
773.826	163.977
776.719	105.13
779.612	4.783
782.504	118.362
785.397	88.092
788.29	181.659
791.182	34.452
794.075	171.16
796.968	136.413
799.86	117.073
802.753	156.21
805.646	42.361
808.539	13.18
811.431	144.931
814.324	61.486
817.217	66.406
820.109	64.297
823.002	44.918
825.895	14.571
828.787	36.479
831.68	90.122
834.573	49.889
837.466	105.693
840.358	104.718
843.251	90.003
846.144	80.152
849.036	105.657
851.929	53.688
854.822	20.757
857.714	62.941
860.607	43.554
863.5	122.085
866.393	137.23
869.285	140.721
872.178	14.89
875.071	64.471
877.963	63.977
880.856	71.422
883.749	30.547
886.641	61.514
889.534	300.064
892.427	175.739
895.32	224.591
898.212	187.481
901.105	99.887
903.998	133.678
906.89	103.488
909.783	115.715
912.676	23.107
915.568	88.803
918.461	74.605
921.354	50.412
924.247	280.956
927.139	177.733
930.032	160.763
932.925	107.934
935.817	151.4
938.71	153.021
941.603	244.206
944.495	142.018
947.388	203.186
950.281	239.284
953.174	246.912
956.066	294.621
958.959	264.106
961.852	220.601
964.744	166.754
967.637	95.922
970.53	80.798
973.422	155.258
976.315	118.16
979.208	135.004
982.101	188.321
984.993	79.999
987.886	98.327
990.779	34.37
993.671	104.603
996.564	64.747
999.457	75.58
1002.35	106.799
1005.24	35.803
1008.13	37.702
1011.03	6.073
1013.92	60.073
1016.81	1.271
1019.71	100.053
1022.6	50.422
1025.49	121.218
1028.38	33.475
1031.28	48.014
1034.17	131.535
1037.06	98.693
1039.95	168.752
1042.85	96.652
1045.74	81.777
1048.63	6.193
1051.53	20.222
1054.42	72.831
1057.31	68.927
1060.2	106.353
1063.1	34.565
1065.99	104.322
1068.88	108.564
1071.77	75.513
1074.67	144.002
1077.56	73.136
1080.45	4.151
1083.35	39.131
1086.24	37.852
1089.13	86.388
1092.02	14.311
1094.92	88.007
1097.81	89.738
1100.7	95.544
1103.59	123.975
1106.49	198.632
1109.38	78.302
1112.27	123.556
1115.16	87.222
1118.06	143.646
1120.95	127.131
1123.84	62.907
1126.74	68.974
1129.63	142.638
1132.52	175.328
1135.41	193.744
1138.31	194.567
1141.2	117.24
1144.09	40.474
1146.98	126.1
1149.88	95.783
1152.77	82.038
1155.66	143.95
1158.56	19.761
1161.45	72.965
1164.34	140.915
1167.23	9.877
1170.13	31.078
1173.02	19.769
1175.91	9.649
1178.8	26.044
1181.7	105.534
1184.59	69.78
1187.48	17.847
1190.38	70.699
1193.27	15.518
1196.16	41.403
1199.05	79.27
1201.95	11.975
1204.84	47.034
1207.73	155.523
1210.62	68.504
1213.52	153.744
1216.41	107.725
1219.3	98.26
1222.19	81.615
1225.09	99.734
1227.98	62.258
1230.87	71.335
1233.77	109.318
1236.66	61.812
1239.55	46.977
1242.44	12.223
1245.34	94.101
1248.23	152.119
1251.12	101.689
1254.02	24.796
1256.91	0
