Measurement: Raman, 780 nm, unoriented, Raman Data Processed
Mineral: Siegenite
Rruff sample: R060502
Ideal chemistry: Co^2+^Ni^3+^_2_S^2-^_4_
Locality: Magmont mine, Viburnum Trend Lead Belt, southeastern Missouri, USA
Source: Michael Scott
Description: Black octahedra covering a surface
Measured chemistry: Co_1.00_(Ni_1.53_Co_0.32_Fe_0.15_)_Î£=2_S_4.00_ ; trace amounts of Cr
Raman shift (cm-1)	intensity
148.932	0
151.825	5.93311
154.717	5.13855
157.61	3.28125
160.503	4.33557
163.395	6.80298
166.288	4.4696
169.181	4.70105
172.073	10.243
174.966	1.48401
177.859	6.27722
180.751	7.53552
183.644	0.373901
186.537	2.3468
189.43	0.699707
192.322	0.363281
195.215	0.984131
198.108	1.6731
201	0.651855
203.893	4.29077
206.786	0.874756
209.678	0.201538
212.571	7.51135
215.464	7.29407
218.357	14.0454
221.249	14.2538
224.142	17.6907
227.035	21.771
229.927	23.405
232.82	33.8295
235.713	30.1984
238.605	39.4268
241.498	37.9711
244.391	32.5725
247.284	31.3283
250.176	28.9174
253.069	24.7284
255.962	21.2625
258.854	19.903
261.747	18.0947
264.64	19.2494
267.532	10.7944
270.425	9.55249
273.318	4.17139
276.211	4.84265
279.103	0.695068
281.996	1.99731
284.889	0.866333
287.781	3.09961
290.674	1.21777
293.567	4.81995
296.459	10.6282
299.352	12.1854
302.245	18.6311
305.137	18.2856
308.03	26.1809
310.923	27.449
313.816	22.2285
316.708	21.1176
319.601	9.47363
322.494	5.23303
325.386	5.62842
328.279	2.72815
331.172	0.208252
334.065	0.989502
336.957	4.94275
339.85	7.59473
342.743	9.52673
345.635	10.6304
348.528	15.0516
351.421	14.7222
354.313	20.2858
357.206	26.9679
360.099	20.1237
362.991	20.3191
365.884	11.5426
368.777	13.6938
371.67	16.0062
374.562	16.4656
377.455	19.2092
380.348	24.2952
383.24	29.7742
386.133	37.8602
389.026	51.4884
391.918	54.3321
394.811	38.0664
397.704	21.917
400.596	4.63782
403.489	2.99963
406.382	2.25134
409.275	1.37683
412.167	0.322998
415.06	1.96594
417.953	1.63379
420.845	3.13428
423.738	2.48633
426.631	5.28076
429.524	8.36035
432.416	4.57458
435.309	6.78589
438.202	5.8407
441.094	2.70593
443.987	5.7904
446.88	10.0266
449.772	8.24756
452.665	11.146
455.558	13.4982
458.45	14.0481
461.343	13.6345
464.236	14.3677
467.129	14.1074
470.021	11.821
472.914	12.0647
475.807	12.7466
478.699	6.52954
481.592	11.7383
484.485	9.26453
487.377	13.7142
490.27	9.04724
493.163	10.4133
496.055	14.3579
498.948	5.16028
501.841	6.61646
504.734	3.94275
507.626	5.49524
510.519	8.9917
513.412	4.61182
516.304	7.27222
519.197	4.84753
522.09	2.55798
524.982	0.179932
527.875	1.93286
530.768	3.19055
533.661	6.98242
536.553	0.768311
539.446	1.35693
542.339	2.68994
545.231	0.160522
548.124	2.11731
551.017	2.96057
553.909	1.20459
556.802	3.10657
559.695	1.69544
562.588	2.3468
565.48	2.51672
568.373	0.818237
571.266	1.61157
574.158	3.34485
577.051	6.92065
579.944	7.41992
582.837	3.40698
585.729	1.5426
588.622	2.01453
591.515	4.90588
594.407	2.80994
597.3	4.79858
600.193	5.62915
603.085	2.17395
605.978	2.92615
608.871	7.73132
611.764	3.11218
614.656	2.13831
617.549	6.17578
620.442	2.91748
623.334	4.28674
626.227	3.99231
629.12	6.27026
632.012	4.35107
634.905	1.83826
637.798	6.90454
640.69	8.87671
643.583	4.50476
646.476	5.46265
649.369	4.35217
652.261	3.68054
655.154	5.59094
658.047	7.802
660.939	7.04968
663.832	7.62378
666.725	6.4425
669.617	3.82861
672.51	4.85828
675.403	3.1012
678.295	2.8208
681.188	3.36877
684.081	1.75757
686.974	1.64453
689.866	2.53845
692.759	0.665649
695.652	2.59277
698.544	0.741821
701.437	3.80749
704.33	0.282104
707.222	2.474
710.115	2.63257
713.008	4.30396
715.901	4.40088
718.793	6.40076
721.686	4.13501
724.579	0.905151
727.471	2.24182
730.364	3.07104
733.257	3.85938
736.149	5.64441
739.042	6.07581
741.935	3.78565
744.828	2.97998
747.72	0.406616
750.613	0.965454
753.506	2.24158
756.398	4.83118
759.291	1.26917
762.184	1.02747
765.077	1.80066
767.969	0.660522
770.862	1.56543
773.755	3.27124
776.647	1.35083
779.54	1.62744
782.433	1.48962
785.325	2.91126
788.218	3.41602
791.111	6.99646
794.003	4.15918
796.896	5.43982
799.789	2.8081
802.682	8.79883
805.574	9.65674
808.467	8.85669
811.36	10.533
814.252	9.19714
817.145	13.1843
820.038	11.2616
822.93	13.5085
825.823	10.4213
828.716	9.54761
831.609	13.1194
834.501	12.3101
837.394	14.6887
840.287	14.2821
843.179	20.267
846.072	15.651
848.965	16.1679
851.857	21.0511
854.75	17.4112
857.643	17.2915
860.535	13.8434
863.428	16.9973
866.321	14.0096
869.214	16.0438
872.106	13.619
874.999	11.36
877.892	14.3202
880.784	11.9763
883.677	10.8445
886.57	11.8475
889.462	7.88965
892.355	7.05823
895.248	6.08533
898.141	3.76923
901.033	2.45483
903.926	2.05591
906.819	1.16986
909.711	3.00592
912.604	2.39661
915.497	0.05304
918.389	0.999634
921.282	1.69934
924.175	0.575623
927.068	0.362061
929.96	6.34247
932.853	0.717834
935.746	0.964905
938.638	3.34235
941.531	1.02777
944.424	1.00446
947.317	1.2088
950.209	1.87445
953.102	0.715027
955.995	1.70831
958.887	2.07873
961.78	4.90064
964.673	0.651184
967.565	3.83264
970.458	2.44397
973.351	1.05786
976.243	0.964966
979.136	4.005
982.029	0.784241
984.922	4.90045
987.814	2.71594
990.707	2.92029
993.6	3.19598
996.492	4.06409
999.385	4.01007
1002.28	8.01556
1005.17	2.49298
1008.06	3.69299
1010.96	6.15088
1013.85	2.30292
1016.74	3.8205
1019.63	3.08569
1022.53	4.74799
1025.42	4.09027
1028.31	4.30298
1031.2	4.18481
1034.1	4.90173
1036.99	9.09918
1039.88	7.68726
1042.78	8.24109
1045.67	4.4942
1048.56	5.36816
1051.45	10.2247
1054.35	8.70001
1057.24	6.07739
1060.13	6.53046
1063.02	11.2756
1065.92	9.96979
1068.81	5.58777
1071.7	5.7619
1074.6	7.75751
1077.49	3.09723
1080.38	5.89105
1083.27	3.07434
1086.17	4.2796
1089.06	5.8031
1091.95	4.44684
1094.84	2.06836
1097.74	2.74219
1100.63	4.23126
1103.52	2.4378
1106.41	1.97406
1109.31	2.95111
1112.2	2.27295
1115.09	0.595642
1117.99	0.810303
1120.88	1.00549
1123.77	2.72913
1126.66	0.784912
1129.56	1.6109
1132.45	0.140198
1135.34	2.64972
1138.23	0.532532
1141.13	1.03766
1144.02	2.34674
1146.91	7.19019
1149.81	7.86066
1152.7	2.60877
1155.59	6.96332
1158.48	5.15692
1161.38	5.43011
1164.27	6.87115
1167.16	6.70306
1170.05	6.73975
1172.95	8.79248
1175.84	8.42255
1178.73	7.0769
1181.62	6.54169
1184.52	9.89331
1187.41	4.7688
1190.3	8.6438
1193.2	7.1535
1196.09	9.19
1198.98	6.97638
1201.87	9.12891
1204.77	7.3288
1207.66	7.10455
1210.55	6.06946
1213.44	6.22308
1216.34	8
1219.23	3.51593
1222.12	1.22485
1225.02	4.2251
1227.91	4.50018
1230.8	3.31342
1233.69	1.89349
1236.59	5.32275
1239.48	6.33295
1242.37	0.730103
1245.26	1.30017
1248.16	2.09174
1251.05	2.13611
1253.94	2.73077
1256.84	0.246338
1259.73	3.25018
1262.62	3.31561
1265.51	3.21295
1268.41	2.60303
1271.3	2.59595
1274.19	1.25592
1277.08	2.09131
1279.98	2.02295
1282.87	3.65002
