Measurement: Raman, 785 nm, unoriented, Raman Data Processed
Mineral: Siegenite
Rruff sample: R070252
Ideal chemistry: Co^2+^Ni^3+^_2_S^2-^_4_
Locality: Gruge Viktoria Musen, Siegen, Siegerland, North Rhine-Westphalia, Germany
Source: Michael Scott
Description: Steel gray cubo-octahedra associated with dark gray tetrahedrite (with parallel growth on corners), siderite and minor quartz
Measured chemistry: Co_1.00_(Ni_1.56_Co_0.42_Fe_0.02_)_Î£=2_S_4_
Raman shift (cm-1)	intensity
179.838	0
182.73	16.4023
185.623	40.7048
188.516	49.3219
191.408	89.7875
194.301	14.1538
197.194	83.0408
200.087	4.95557
202.979	37.562
205.872	29.4652
208.765	44.3672
211.657	0.628052
214.55	24.4169
217.443	16.8118
220.335	43.4179
223.228	76.2743
226.121	70.7451
229.013	114.76
231.906	131.915
234.799	173.726
237.692	169.854
240.584	149.596
243.477	174.85
246.37	148.68
249.262	134.638
252.155	161.483
255.048	139.926
257.941	80.8734
260.833	52.5376
263.726	40.2836
266.619	32.9496
269.511	34.1367
272.404	30.7396
275.297	11.0266
278.19	20.3453
281.082	33.7266
283.975	42.5289
286.868	19.1486
289.76	23.8589
292.653	37.9629
295.546	28.7455
298.438	51.1232
301.331	63.0839
304.224	71.1968
307.116	65.4083
310.009	55.8375
312.902	46.2502
315.795	63.825
318.687	38.1119
321.58	1.30103
324.473	9.16016
327.365	12.8422
330.258	0.873535
333.151	30.1896
336.043	28.6421
338.936	19.2861
341.829	22.053
344.721	28.375
347.614	24.4053
350.507	52.2393
353.4	47.3353
356.292	70.3125
359.185	50.9423
362.078	54.8463
364.97	22.598
367.863	49.929
370.756	60.4449
373.649	71.7484
376.541	109.557
379.434	132.145
382.327	165.76
385.219	182.554
388.112	205.27
391.005	171.76
393.897	112.126
396.79	66.7217
399.683	27.474
402.575	35.9868
405.468	2.30554
408.361	9.10437
411.254	15.2583
414.146	14.0625
417.039	2.80566
419.932	5.26111
422.824	35.5371
425.717	4.28894
428.61	18.4448
431.502	6.44092
434.395	34.8879
437.288	0.166382
440.181	2.07275
443.073	0.86499
445.966	18.6605
448.859	8.70776
451.751	8.92212
454.644	18.3882
457.537	30.2595
460.43	3.01428
463.322	14.5945
466.215	22.0193
469.108	7.59656
472	5.22192
474.893	17.9364
477.786	1.37158
480.678	15.4795
483.571	11.4274
486.464	36.5282
489.356	9.422
492.249	28.6691
495.142	32.2329
498.035	16.1429
500.927	0.279785
503.82	40.4452
506.713	18.9342
509.605	22.4497
512.498	18.8581
515.391	30.3973
518.284	9.59033
521.176	37.5702
524.069	42.5144
526.962	35.1295
529.854	29.3767
532.747	9.07678
535.64	36.2922
538.533	15.7524
541.425	49.6102
544.318	19.6915
547.211	52.3273
550.103	7.26514
552.996	6.13574
555.889	0.276245
558.781	48.0809
561.674	21.424
564.567	5.18262
567.459	32.9612
570.352	12.2087
573.245	10.046
576.138	38.127
579.03	13.9379
581.923	25.3441
584.816	13.9329
587.708	40.8287
590.601	18.2312
593.494	21.2689
596.386	41.8964
599.279	15.4864
602.172	33.4567
605.064	57.8309
607.957	26.2129
610.85	19.1311
613.743	19.4894
616.635	10.3809
619.528	31.746
622.421	29.1661
625.313	17.0851
628.206	22.0304
631.099	32.9529
633.991	28.7009
636.884	17.0671
639.777	12.5146
642.67	10.941
645.562	13.2843
648.455	32.2614
651.348	20.2196
654.24	23.6088
657.133	36.0635
660.026	31.8097
662.918	8.60742
665.811	21.3624
668.704	28.3207
671.597	2.92871
674.489	34.9204
677.382	2.25964
680.275	1.46814
683.167	16.6234
686.06	13.8733
688.953	20.7482
691.846	19.3368
694.738	13.1727
697.631	35.644
700.524	31.9758
703.416	37.1753
706.309	27.1644
709.202	11.5577
712.094	27.7991
714.987	7.39807
717.88	32.9252
720.773	22.9849
723.665	20.4238
726.558	15.9966
729.451	13.2599
732.343	12.1289
735.236	36.8635
738.129	23.7555
741.021	18.2472
743.914	29.9495
746.807	20.725
749.699	18.6392
752.592	8.0271
755.485	0.820557
758.378	22.4664
761.27	10.1242
764.163	34.3423
767.056	23.2844
769.948	5.95935
772.841	2.25696
775.734	17.0254
778.626	2.52014
781.519	22.5771
784.412	29.3379
787.305	21.4432
790.197	24.1383
793.09	21.5572
795.983	13.8982
798.875	24.3041
801.768	13.3716
804.661	5.74695
807.553	15.7688
810.446	14.9735
813.339	0.326904
816.232	24.1375
819.124	0.493042
822.017	50.7638
824.91	26.4644
827.802	14.7012
830.695	14.2865
833.588	19.9548
836.481	51.3225
839.373	14.4137
842.266	28.4028
845.159	17.4403
848.051	17.1084
850.944	27.8099
853.837	9.65454
856.729	16.6799
859.622	25.11
862.515	38.5039
865.408	20.4363
868.3	11.7405
871.193	14.6589
874.086	13.92
876.978	9.23242
879.871	10.3339
882.764	15.9689
885.656	13.5939
888.549	12.9746
891.442	10.3095
894.335	8.55798
897.227	15.7919
900.12	29.1148
903.013	34.3789
905.905	13.4266
908.798	14.0998
911.691	3.67127
914.583	2.50171
917.476	0.989502
920.369	16.0627
923.261	14.2264
926.154	19.2553
929.047	9.11352
931.94	28.4819
934.832	7.71631
937.725	27.0334
940.618	39.9828
943.51	13.0217
946.403	0.625977
949.296	8.08398
952.188	21.7284
955.081	10.9965
957.974	25.5021
960.867	7.01477
963.759	6.82165
966.652	15.3986
969.545	6.26355
972.437	8.15637
975.33	30.7454
978.223	35.4872
981.115	10.2737
984.008	27.2972
986.901	12.7882
989.794	26.1433
992.686	17.0658
995.579	17.6879
998.472	13.6238
1001.36	22.0909
1004.26	14.543
1007.15	16.5177
1010.04	10.584
1012.93	7.4436
1015.83	26.4034
1018.72	36.1564
1021.61	35.8353
1024.51	7.14917
1027.4	41.4292
1030.29	47.4729
1033.18	17.4144
1036.08	32.4988
1038.97	26.6617
1041.86	13.8892
1044.76	9.49268
1047.65	14.7756
1050.54	17.083
1053.43	33.13
1056.33	5.0697
1059.22	23.5442
1062.11	36.2793
1065	23.6256
1067.9	26.2518
1070.79	6.99072
1073.68	39.9518
1076.58	10.2137
1079.47	13.9315
1082.36	21.3535
1085.25	8.80017
1088.14	20.2703
1091.04	15.7293
1093.93	22.2408
1096.82	54.6315
1099.72	26.9277
1102.61	17.7192
1105.5	27.6367
1108.39	1.89966
1111.29	25.7645
1114.18	13.9712
1117.07	35.6796
1119.96	37.0084
1122.86	28.1895
1125.75	27.5005
1128.64	58.5299
1131.54	5.4596
1134.43	18.7206
1137.32	17.5087
1140.21	28.14
1143.11	9.42847
1146	30.9625
1148.89	26.9062
1151.79	28.9559
1154.68	14.1234
1157.57	24.4319
1160.46	15.3778
1163.36	18.9176
1166.25	18.8845
1169.14	27.3347
1172.03	23.901
1174.93	8.14893
1177.82	34.1469
1180.71	21.45
1183.6	1.92444
1186.5	17.1949
1189.39	27.3331
1192.28	19.4303
1195.17	33.6932
1198.07	58.6168
1200.96	14.3151
1203.85	4.88367
1206.75	1.15198
1209.64	21.8439
1212.53	10.4766
1215.42	1.125
