Measurement: Raman, 532 nm, unoriented, Raman Data Processed
Mineral: Siegenite
Rruff sample: R060502
Ideal chemistry: Co^2+^Ni^3+^_2_S^2-^_4_
Locality: Magmont mine, Viburnum Trend Lead Belt, southeastern Missouri, USA
Source: Michael Scott
Description: Black octahedra covering a surface
Measured chemistry: Co_1.00_(Ni_1.53_Co_0.32_Fe_0.15_)_Î£=2_S_4.00_ ; trace amounts of Cr
Raman shift (cm-1)	intensity
180.822	0
183.715	25.377
186.608	53.34
189.501	22.136
192.393	28.164
195.286	48.652
198.179	70.23
201.071	60.124
203.964	39.355
206.857	75.243
209.749	47.069
212.642	66.453
215.535	36.118
218.428	17.204
221.32	26.029
224.213	4.76
227.106	0.665
229.998	8.429
232.891	4.745
235.784	18.297
238.676	18.709
241.569	39.485
244.462	67.064
247.355	105.607
250.247	124.498
253.14	122.094
256.033	124.27
258.925	134.318
261.818	102.142
264.711	93.125
267.603	49.253
270.496	43.849
273.389	22.847
276.282	32.366
279.174	4.958
282.067	0.139
284.96	2.901
287.852	3.377
290.745	53.901
293.638	80.193
296.53	120.34
299.423	189.082
302.316	323.112
305.209	386.669
308.101	450.183
310.994	392.584
313.887	282.795
316.779	192.062
319.672	128.608
322.565	82.278
325.457	59.432
328.35	33.522
331.243	18.898
334.136	5.085
337.028	23.843
339.921	25.258
342.814	38.812
345.706	92.811
348.599	138.392
351.492	218.113
354.384	233.415
357.277	204.157
360.17	176
363.063	154.303
365.955	127.203
368.848	99.546
371.741	105.773
374.633	90.824
377.526	166.744
380.419	217.352
383.311	246.778
386.204	278.339
389.097	303.117
391.99	248.091
394.882	90.074
397.775	53.357
400.668	36.835
403.56	40.725
406.453	46.424
409.346	30.145
412.238	9.921
415.131	1.026
418.024	20.885
420.917	1.924
423.809	7.22
426.702	19.103
429.595	37.453
432.487	38.418
435.38	13.901
438.273	27.077
441.165	8.193
444.058	27.283
446.951	63.35
449.844	45.872
452.736	50.244
455.629	47.403
458.522	52.871
461.414	46.659
464.307	58.684
467.2	73.577
470.093	23.908
472.985	56.38
475.878	35.419
478.771	25.853
481.663	11.318
484.556	3.212
487.449	8.026
490.341	43.508
493.234	9.143
496.127	15.307
499.02	8.994
501.912	21.757
504.805	17.781
507.698	23.868
510.59	29.418
513.483	19.097
516.376	38.634
519.268	47.44
522.161	23.299
525.054	16.99
527.947	30.678
530.839	47.074
533.732	36.879
536.625	26.218
539.517	28.569
542.41	3.537
545.303	16.736
548.195	9.76
551.088	12.344
553.981	28.82
556.874	12.141
559.766	15.149
562.659	24.434
565.552	37.164
568.444	39.164
571.337	39.901
574.23	8.406
577.122	15.214
580.015	11.034
582.908	15.525
585.801	1.032
588.693	16.192
591.586	46.944
594.479	45.495
597.371	15.203
600.264	27.614
603.157	25.874
606.049	27.194
608.942	4.965
611.835	19.458
614.728	38.946
617.62	45.97
620.513	45.237
623.406	35.256
626.298	48.493
629.191	35.768
632.084	36.717
634.977	17.713
637.869	34.02
640.762	12.239
643.655	3.128
646.547	23.091
649.44	33.198
652.333	17.242
655.225	47.258
658.118	56.354
661.011	18.216
663.904	10.071
666.796	19.3
669.689	25.654
672.582	16.912
675.474	9.765
678.367	20.66
681.26	57.031
684.153	50.871
687.045	3.769
689.938	35.174
692.831	30.77
695.723	23.054
698.616	45.568
701.509	34.521
704.401	25.169
707.294	63.81
710.187	51.767
713.08	5.98
715.972	21.071
718.865	40.888
721.758	52.436
724.65	34.467
727.543	11.315
730.436	25.913
733.328	35.011
736.221	42.447
739.114	21.128
742.006	35.15
744.899	31.177
747.792	8.984
750.685	32.622
753.577	37.528
756.47	27.584
759.363	27.312
762.255	33.397
765.148	18.613
768.041	32.691
770.933	46.995
773.826	31.589
776.719	16.362
779.612	54.812
782.504	28.281
785.397	70.618
788.29	13.872
791.182	22.969
794.075	37.275
796.968	41.556
799.86	31.23
802.753	43.102
805.646	0.8
808.539	5.829
811.431	13.573
814.324	26.498
817.217	45.966
820.109	34.27
823.002	1.553
825.895	40.865
828.787	46.513
831.68	19.046
834.573	9.388
837.466	17.103
840.358	25.113
843.251	56.515
846.144	44.965
849.036	32.876
851.929	5.538
854.822	0.071
857.714	3.688
860.607	41.307
863.5	43.333
866.393	42.737
869.285	39.099
872.178	31.146
875.071	24.164
877.963	9.059
880.856	32.493
883.749	33.313
886.641	30.133
889.534	23.353
892.427	26.91
895.32	38.687
898.212	28.139
901.105	35.664
903.998	53.937
906.89	26.749
909.783	6.993
912.676	15.101
915.568	22.313
918.461	34.843
921.354	51.255
924.247	22.72
927.139	48.559
930.032	51.841
932.925	35.499
935.817	29.052
938.71	59.925
941.603	33.723
944.495	35.326
947.388	43.627
950.281	24.468
953.174	30.904
956.066	25.265
958.959	19.265
961.852	15.628
964.744	3.588
967.637	20.739
970.53	18.461
973.422	14.164
976.315	38.797
979.208	54.406
982.101	16.581
984.993	30.893
987.886	36.106
990.779	36.114
993.672	12.27
996.564	14.123
999.457	51.416
1002.35	33.463
1005.24	19.927
1008.13	51.063
1011.03	5.727
1013.92	22.317
1016.81	29.982
1019.71	18.159
1022.6	54.781
1025.49	62.942
1028.38	45.021
1031.28	34.757
1034.17	1.852
1037.06	22.653
1039.95	44.789
1042.85	41.17
1045.74	26.288
1048.63	26.531
1051.53	46.142
1054.42	25.033
1057.31	65.497
1060.2	50.459
1063.1	67.754
1065.99	43.29
1068.88	38.642
1071.77	2.418
1074.67	28.497
1077.56	31.717
1080.45	6.484
1083.35	29.301
1086.24	46.016
1089.13	51.27
1092.02	52.838
1094.92	37.565
1097.81	14.675
1100.7	42.71
1103.59	40.533
1106.49	26.92
1109.38	80.331
1112.27	97.158
1115.16	37.353
1118.06	4.45
1120.95	3.381
1123.84	49.683
1126.74	35.643
1129.63	42.039
1132.52	17.26
1135.41	41.039
1138.31	56.972
1141.2	52.872
1144.09	44.94
1146.98	7.384
1149.88	29.414
1152.77	17.508
1155.66	1.863
1158.56	64.294
1161.45	23.262
1164.34	43.592
1167.23	55.084
1170.13	61.765
1173.02	61.549
1175.91	44.631
1178.8	59.408
1181.7	38.122
1184.59	63.683
1187.48	22.682
1190.38	48.746
1193.27	5.671
1196.16	32.656
1199.05	8.649
1201.95	34.04
1204.84	25.067
1207.73	31.09
1210.62	35.843
1213.52	50.922
1216.41	49.054
1219.3	37.214
1222.19	25.002
1225.09	18.907
1227.98	40.175
1230.87	6.026
1233.77	68.394
1236.66	13.303
1239.55	57.084
1242.44	55.368
1245.34	66.155
1248.23	70.317
1251.12	19.636
1254.02	53.246
1256.91	66.348
1259.8	49.791
1262.69	37.428
1265.59	27.14
1268.48	2.825
1271.37	38.628
1274.26	38.583
1277.16	79.562
1280.05	49.492
1282.94	30.49
1285.83	38.89
1288.73	57.454
1291.62	60.932
1294.51	95.509
1297.4	0.117
1300.3	16.046
