Measurement: Raman, 514 nm, unoriented, Raman Data Processed
Mineral: Siegenite
Rruff sample: R050092
Ideal chemistry: Co^2+^Ni^3+^_2_S^2-^_4_
Locality: Bunker Hill mine, Jasper County, Missouri, USA
Source: Rock Currier
Description: Silver metallic octahedra coating chalcopyrite
Raman shift (cm-1)	intensity
162.779	0
166.926	2.546
171.07	79.04
175.213	44.93
179.354	52.87
183.493	100.723
187.63	55.342
191.765	222.086
195.898	329.704
200.029	380.76
204.158	483.408
208.285	510.015
212.41	16.562
216.533	73.479
220.654	32.414
224.773	27.162
228.891	73.265
233.006	80.14
237.119	24.818
241.231	20.952
245.34	34.465
249.448	76.072
253.553	136.802
257.657	176.557
261.758	151.261
265.858	154.866
269.956	212.303
274.052	135.46
278.146	221.398
282.237	532.601
286.327	1126.88
290.416	1169.03
294.502	614.638
298.586	656.312
302.668	693.143
306.749	690.699
310.827	527.569
314.903	410.023
318.978	238.231
323.051	234.413
327.121	119.675
331.19	165.46
335.257	159.071
339.322	177.032
343.385	198.581
347.446	296.524
351.505	422.11
355.563	377.309
359.618	181.125
363.672	258.637
367.723	306.997
371.773	290.003
375.821	255.039
379.866	329.765
383.91	465.354
387.952	472.028
391.992	351.713
396.031	114.766
400.067	40.061
404.101	49.799
408.134	46.465
412.165	7.866
416.193	15.198
420.22	9.424
424.245	16.995
428.268	23.52
432.289	59.788
436.309	9.969
440.326	24.702
444.342	35.499
448.355	58.638
452.367	67.858
456.377	28.725
460.385	110.597
464.391	95.46
468.395	167.314
472.398	200.053
476.398	204.833
480.397	115.011
484.394	133.26
488.389	165.942
492.382	146.555
496.373	119.154
500.362	163.702
504.349	205.2
508.335	190.642
512.319	174.056
516.3	211.426
520.28	215.753
524.259	228.077
528.235	202.38
532.209	219.666
536.182	211.936
540.152	230.506
544.121	273.836
548.088	239.293
552.053	236.822
556.017	274.123
559.978	249.948
563.938	259.906
567.895	259.153
571.851	179.64
575.805	221.118
579.758	258.638
583.708	145.812
587.657	138.287
591.603	93.787
595.548	85.621
599.491	139.767
603.432	168.99
607.372	118.754
611.309	69.529
615.245	115.296
619.179	101.015
623.111	123.256
627.041	72.731
630.97	153.155
634.896	73.789
638.821	110.632
642.744	116.356
646.665	115.199
650.584	112.564
654.502	124
658.418	116.408
662.331	125.242
666.244	188.54
670.154	143.134
674.062	142.369
677.969	82.482
681.874	166.555
685.777	113.62
689.678	77.698
693.577	21.649
697.475	128.645
701.371	51.047
705.265	6.415
709.157	92.622
713.047	95.379
716.936	101.024
720.823	87.744
724.708	89.889
728.591	77.168
732.472	9.469
736.352	1.092
740.23	13.74
744.106	43.59
747.98	39.209
751.853	27.66
755.723	15.022
759.592	18.319
763.459	24.534
767.325	22.7
771.188	66.663
775.05	11.505
778.91	19.845
782.768	14.058
786.625	7.911
790.479	31.396
794.332	47.662
798.183	16.841
802.033	0.07
805.88	55.885
809.726	26.324
813.57	31.326
817.413	17.884
821.253	11.335
825.092	35.663
828.929	14.478
832.764	45.957
836.598	9.009
840.429	23.871
844.259	23.628
848.088	5.107
851.914	7.71
855.739	90.965
859.562	26.988
863.383	67.316
867.203	86.506
871.02	29.742
874.836	52.488
878.65	85.502
882.463	38.458
886.274	28.725
890.083	53.447
893.89	31.833
897.695	159.043
901.499	54.29
905.301	125.582
909.102	127.81
912.9	90.426
916.697	42.758
920.492	150.042
924.285	153.429
928.077	106.414
931.867	127.861
935.655	86.677
939.442	78.477
943.226	207.427
947.009	129.432
950.791	150.739
954.57	119.224
958.348	112.369
962.124	98.163
965.899	129.348
969.671	170.714
973.442	174.227
977.211	171.46
980.979	182.75
984.745	225.403
988.509	250.67
992.271	162.946
996.032	221.148
999.791	255.551
1003.55	267.832
1007.3	265.544
1011.06	230.135
1014.81	202.42
1018.56	231.357
1022.31	215.292
1026.06	216.597
1029.8	285.964
1033.55	301.967
1037.29	271.791
1041.03	286.183
1044.77	268.883
1048.5	320.519
1052.24	312.202
1055.97	337.473
1059.7	292.313
1063.43	279.566
1067.16	386.619
1070.89	279.635
1074.61	278.823
1078.34	271.987
1082.06	221.135
1085.78	193.149
1089.5	218.885
1093.21	234.837
1096.93	182.552
1100.64	147.233
1104.35	164.821
1108.06	113.429
1111.77	128.915
1115.48	130.442
1119.18	159.812
1122.89	183.134
1126.59	125.758
1130.29	140.726
1133.99	117.968
1137.68	102.148
1141.38	63.308
1145.07	116.407
1148.76	23.448
1152.45	104.428
1156.14	47.351
1159.83	85.208
1163.51	43.972
1167.19	53.731
1170.88	41.389
1174.56	22.962
1178.23	30.422
1181.91	50.732
1185.59	2.067
1189.26	21.018
1192.93	30.813
1196.6	1.536
1200.27	51.137
1203.94	28.652
1207.6	1.067
1211.27	54.616
1214.93	3.439
1218.59	41.633
1222.25	4.367
1225.9	58.548
1229.56	2.613
1233.21	76.139
1236.86	122.813
1240.51	52.41
1244.16	33.928
1247.81	86.372
1251.45	108.748
1255.1	104.064
1258.74	73.322
1262.38	94.524
1266.02	95.672
1269.66	111.251
1273.29	70.813
1276.93	51.813
1280.56	139.537
1284.19	55.693
1287.82	94.354
1291.45	130.145
1295.07	97.444
1298.7	115.207
1302.32	138.577
1305.94	169.866
1309.56	155.059
1313.18	140.704
1316.8	213.078
1320.41	178.769
1324.02	154.906
1327.63	163.408
1331.24	200.235
1334.85	171.227
1338.46	110.759
1342.06	152.991
1345.67	203.844
1349.27	139.707
1352.87	246.483
1356.47	175.042
1360.07	190.548
1363.66	231.085
1367.25	241.347
1370.85	110.39
1374.44	208.203
1378.03	131.559
1381.61	86.124
1385.2	163.901
1388.78	163.376
1392.37	165.908
1395.95	150.214
1399.53	150.292
1403.1	136.426
1406.68	70.098
1410.26	60.559
1413.83	71.288
1417.4	72.186
1420.97	93.845
1424.54	5.099
1428.1	74.079
1431.67	49.017
1435.23	30.193
1438.8	14.944
1442.36	70.181
1445.91	11.169
1449.47	9.355
