Measurement: Raman, 780 nm, unoriented, Raman Data Processed
Mineral: Sieleckiite
Rruff sample: R080035
Ideal chemistry: Cu^2+^_3_Al_4_(P^5+^O_4_)_2_(OH)_12_2H_2_O
Locality: Mount Oxide Copper mine, Mt Isa, Mt Isa - Cloncurry area, Queensland, Australia
Source: Michael Scott
Description: Aggregates of royal blue smooth spheres associated with colorless variscite
Raman shift (cm-1)	intensity
149.413	0
152.306	0.387915
155.199	0.013773
158.091	1.09352
160.984	0.584526
163.877	1.00782
166.77	1.1889
169.662	0.73275
172.555	0.013374
175.448	0.34882
178.34	0.4352
181.233	0.136786
184.126	0.789452
187.018	0.886055
189.911	1.48395
192.804	1.09113
195.697	0.880959
198.589	2.22832
201.482	2.53749
204.375	2.09473
207.267	1.73212
210.16	1.84745
213.053	2.69688
215.946	4.54534
218.838	1.30417
221.731	4.15545
224.624	4.12866
227.516	4.57363
230.409	2.32544
233.302	3.30662
236.194	2.68974
239.087	1.93117
241.98	0.084492
244.873	0.438419
247.765	0.599173
250.658	0.422588
253.551	0.091213
256.443	0.751301
259.336	0.889811
262.229	0.708929
265.121	0.603151
268.014	0.807686
270.907	1.67508
273.8	0.976477
276.692	2.63739
279.585	2.8937
282.478	3.39685
285.37	3.37427
288.263	4.7942
291.156	4.502
294.048	4.10726
296.941	5.31101
299.834	4.64076
302.726	2.28842
305.619	2.70048
308.512	1.72171
311.405	0.767803
314.297	0.340801
317.19	2.60571
320.083	0.46278
322.975	0.441971
325.868	0.358606
328.761	1.14696
331.654	1.91468
334.546	2.12536
337.439	3.74899
340.332	3.99647
343.224	4.60079
346.117	5.65611
349.01	5.74796
351.902	6.08881
354.795	7.54455
357.688	5.85112
360.58	6.69684
363.473	3.54753
366.366	3.13922
369.259	3.05017
372.151	3.58444
375.044	0.981693
377.937	1.44908
380.829	0.95084
383.722	1.97114
386.615	0.819149
389.507	0.986471
392.4	0.809393
395.293	0.718561
398.185	0.388664
401.078	1.31698
403.971	1.49636
406.864	0.613764
409.756	0.071424
412.649	0.601257
415.542	0.183382
418.434	0.512672
421.327	0.515678
424.22	0.19426
427.113	0.638468
430.005	0.202454
432.898	1.37994
435.791	0.159414
438.683	1.57323
441.576	2.16118
444.469	1.49476
447.361	1.66893
450.254	1.37044
453.147	1.20179
456.039	2.88013
458.932	2.62588
461.825	2.91745
464.718	3.94383
467.61	1.77758
470.503	3.2895
473.396	3.27962
476.288	2.4487
479.181	1.96847
482.074	2.14924
484.966	1.3912
487.859	1.57965
490.752	1.5221
493.645	0.599598
496.537	0.547026
499.43	0.30015
502.323	0.360319
505.215	0.750656
508.108	1.10139
511.001	0.607986
513.894	2.36466
516.786	1.58957
519.679	2.32517
522.572	2.07942
525.464	2.96378
528.357	3.07411
531.25	2.07322
534.142	3.98146
537.035	4.13972
539.928	3.73847
542.821	3.51024
545.713	3.43211
548.606	3.77084
551.499	1.86803
554.391	1.87541
557.284	3.29898
560.177	3.0686
563.069	2.47897
565.962	3.07519
568.855	1.94379
571.747	0.938725
574.64	1.19744
577.533	0.339844
580.426	0.506697
583.318	1.84857
586.211	1.2866
589.104	0.515884
591.996	0.052912
594.889	0.348366
597.782	1.30013
600.674	1.49194
603.567	0.022129
606.46	0.609382
609.352	0.534045
612.245	2.63587
615.138	1.23198
618.031	2.54431
620.923	1.87769
623.816	2.96738
626.709	2.25625
629.601	3.21622
632.494	2.07227
635.387	1.50707
638.279	1.71283
641.172	1.58821
644.065	2.02211
646.958	2.09558
649.85	0.115227
652.743	1.11885
655.636	1.09922
658.528	1.06387
661.421	0.80355
664.314	0.066426
667.207	1.62626
670.099	0.867097
672.992	1.11595
675.885	1.30005
678.777	0.425521
681.67	1.1435
684.563	1.51152
687.455	0.637738
690.348	1.43991
693.241	1.63174
696.134	0.828827
699.026	1.97809
701.919	0.527704
704.812	1.14279
707.704	1.39847
710.597	0.342428
713.49	0.175161
716.382	0.385998
719.275	1.66479
722.168	0.093321
725.061	1.38244
727.953	0.305989
730.846	0.478187
733.739	0.327655
736.631	0.586231
739.524	1.6141
742.417	1.18466
745.309	1.21065
748.202	0.520651
751.095	1.19961
753.987	0.174543
756.88	0.871877
759.773	1.73857
762.666	1.73716
765.558	1.86349
768.451	0.654825
771.344	0.391644
774.236	0.878148
777.129	2.99474
780.022	1.41667
782.914	1.48562
785.807	1.43634
788.7	0.969301
791.593	0.420225
794.485	0.047888
797.378	0.306898
800.271	1.37621
803.163	0.682098
806.056	1.44431
808.949	0.828822
811.841	1.09908
814.734	0.051313
817.627	1.69902
820.52	2.21247
823.412	1.37469
826.305	2.16626
829.198	1.46385
832.09	1.9164
834.983	1.45836
837.876	1.21802
840.769	2.01575
843.661	2.57988
846.554	1.03618
849.447	1.45412
852.339	1.99229
855.232	1.98697
858.125	0.983118
861.017	2.982
863.91	0.76838
866.803	1.6706
869.696	1.04092
872.588	1.06651
875.481	1.54287
878.374	1.19818
881.266	0.091045
884.159	1.01622
887.052	1.00968
889.944	0.660121
892.837	1.64424
895.73	0.963895
898.622	2.34863
901.515	1.19856
904.408	1.14684
907.301	0.959665
910.193	0.510952
913.086	0.264506
915.979	0.530845
918.871	1.78824
921.764	0.993324
924.657	0.145854
927.549	1.60927
930.442	1.91176
933.335	0.632819
936.227	2.04898
939.12	0.492967
942.013	2.84199
944.906	1.33201
947.798	0.86137
950.691	0.568279
953.584	2.65987
956.476	1.26933
959.369	2.32567
962.262	3.1308
965.154	4.841
968.047	5.72127
970.94	6.08683
973.833	6.18331
976.725	9.01816
979.618	9.48361
982.511	9.19948
985.403	6.97436
988.296	7.01181
991.189	5.89515
994.082	2.99134
996.974	1.73171
999.867	1.34829
1002.76	1.45637
1005.65	1.81683
1008.54	0.884088
1011.44	2.92768
1014.33	0.732475
1017.22	2.03674
1020.12	3.23845
1023.01	2.79013
1025.9	2.53028
1028.79	1.5225
1031.69	1.43234
1034.58	0.378285
1037.47	0.416476
1040.37	1.29684
1043.26	1.03345
1046.15	0.027432
1049.04	1.41706
1051.94	0.293002
1054.83	1.07928
1057.72	0.992457
1060.61	1.99749
1063.51	1.71689
1066.4	1.4695
1069.29	2.12875
1072.18	1.2223
1075.08	2.21546
1077.97	0.148069
1080.86	1.13102
1083.76	2.07994
1086.65	0.656975
1089.54	1.27167
1092.43	1.28758
1095.33	0.124637
1098.22	0.037167
1101.11	0.141555
1104	0.039137
1106.9	1.40872
1109.79	0.701931
1112.68	0.475342
1115.58	1.9169
1118.47	2.15148
1121.36	2.34964
1124.25	2.23047
1127.15	2.71357
1130.04	1.77836
1132.93	3.31902
1135.82	1.89408
1138.72	1.81943
1141.61	2.07601
1144.5	1.43741
1147.39	1.23103
1150.29	1.29066
1153.18	1.01341
1156.07	0.442523
1158.96	0.398849
1161.86	1.08369
1164.75	1.10052
1167.64	0.597301
1170.54	0.195275
1173.43	0.040136
1176.32	0.64844
1179.21	0.814397
1182.11	1.27422
1185	0.719427
1187.89	1.65546
1190.79	0.898103
1193.68	1.14843
1196.57	1.45797
1199.46	1.11107
1202.36	1.51868
1205.25	0.565431
1208.14	0.373847
1211.03	1.71339
1213.93	0.524938
1216.82	1.35263
1219.71	1.53306
1222.61	1.84393
1225.5	1.35903
1228.39	1.93026
1231.28	0.023825
1234.18	0.062885
1237.07	1.1459
1239.96	1.73461
1242.85	1.72843
1245.75	1.79965
1248.64	2.88341
1251.53	1.23557
1254.42	1.43055
1257.32	1.64159
1260.21	1.30161
1263.1	2.18983
1265.99	0.092224
1268.89	2.28721
1271.78	1.07682
1274.67	1.32151
1277.57	1.48439
1280.46	1.52138
1283.35	0.268974
1286.24	0.121036
