Measurement: Raman, 780 nm, unoriented, Raman Data Processed
Mineral: Sillimanite
Rruff sample: R100127
Ideal chemistry: Al_2_OSiO_4_
Locality: Andana Tea Plantation, near Khawatha, Rathapura District, Sri Lanka
Source: William W. Pinch
Description: Transparent bluish-gray crystal fragment
Raman shift (cm-1)	intensity
102.176	0
105.551	5.02148
108.926	70.1152
112.301	159.803
115.675	198.275
119.05	215.367
122.425	215.496
125.8	242.508
129.175	247.289
132.55	276.035
135.924	380.027
139.299	471.522
142.674	539.383
146.049	423.031
149.424	375.277
152.798	397.588
156.173	415.603
159.548	460.865
162.923	466.045
166.298	427.131
169.673	368.717
173.047	337.008
176.422	295.519
179.797	244.662
183.172	242.361
186.547	243.723
189.921	198.635
193.296	219.477
196.671	191.668
200.046	184.68
203.421	224.525
206.796	249.19
210.17	237.301
213.545	212.731
216.92	254.098
220.295	241.678
223.67	260.879
227.044	379.609
230.419	526.955
233.794	836.352
237.169	594.332
240.544	87.9453
243.918	28.9375
247.293	4.67773
250.668	7.75977
254.043	17.1504
257.418	15.1973
260.793	2.21484
264.167	3.92773
267.542	7.09961
270.917	6.94922
274.292	30.2285
277.667	47.2637
281.041	67.6836
284.416	78.6973
287.791	62.1602
291.166	146.82
294.541	280.633
297.916	468.119
301.29	785.816
304.665	1262.34
308.04	1830.33
311.415	1734.74
314.79	671.572
318.164	282.613
321.539	215.848
324.914	141.664
328.289	100.107
331.664	30.7656
335.038	9.55664
338.413	54.7207
341.788	93.2031
345.163	109.662
348.538	118.41
351.913	46.5762
355.287	27.0234
358.662	21.1992
362.037	24.332
365.412	6.81641
368.787	39.4688
372.161	0.492188
375.536	5.24805
378.911	1.42383
382.286	13.2285
385.661	39.9082
389.036	77.7519
392.41	61.7871
395.785	3.09961
399.16	12.8516
402.535	8.46094
405.909	27.7051
409.284	81.7481
412.659	103.648
416.034	220.695
419.409	341.693
422.784	323.225
426.158	117.269
429.533	68.9844
432.908	71.6894
436.283	81.3398
439.658	61.7754
443.033	77.6113
446.407	82.0078
449.782	147.816
453.157	241.182
456.532	299.488
459.907	185.945
463.281	81.6484
466.656	78.8066
470.031	81.7344
473.406	73.4316
476.781	56.3008
480.156	91.1738
483.53	98.6152
486.905	70.0781
490.28	43.7559
493.655	32.4863
497.029	7.44336
500.404	2.64648
503.779	25.7461
507.154	8.5
510.529	25.7715
513.904	39.041
517.278	14.7266
520.653	37.4102
524.028	11.0977
527.403	12.2695
530.778	18.0879
534.153	7.42383
537.527	2.51758
540.902	5.61133
544.277	8.66992
547.652	10.5
551.027	22.6484
554.401	54.5977
557.776	47.873
561.151	29.0742
564.526	36.7637
567.901	50.9277
571.275	55.6641
574.65	68.1953
578.025	105.883
581.4	103.254
584.775	148.148
588.149	201.773
591.524	320.76
594.899	354.688
598.274	285.66
601.649	183.609
605.024	144.555
608.398	137.096
611.773	143.519
615.148	140.652
618.523	120.838
621.898	116.455
625.273	115.775
628.647	96.1582
632.022	90.8203
635.397	98.5859
638.772	103.969
642.146	87.1231
645.521	86.5488
648.896	66.0156
652.271	91.8945
655.646	74.9805
659.021	80.4941
662.395	50.3398
665.77	22.0059
669.145	20.418
672.52	0.570313
675.895	37.0645
679.269	23.7578
682.644	10.4121
686.019	13.7773
689.394	8.70312
692.769	9.9668
696.144	11.6426
699.518	23.8379
702.893	58.0078
706.268	79.6289
709.643	52.6992
713.018	23.0371
716.393	43.0605
719.767	53.3418
723.142	39.1133
726.517	26.248
729.892	30.6797
733.266	15.1104
736.641	29.0176
740.016	5.2041
743.391	11.9688
746.766	1.91309
750.141	39.0732
753.515	28.0547
756.89	0.348633
760.265	0.264648
763.64	6.88477
767.015	3.5625
770.389	1.47754
773.764	16.7568
777.139	19.7666
780.514	7.94336
783.889	13.6318
787.264	38.8369
790.638	11.0391
794.013	18.1914
797.388	7.96582
800.763	32.6055
804.138	44.5225
807.513	65.0537
810.887	36.2978
814.262	37.46
817.637	54.1699
821.012	56.0264
824.386	63.7441
827.761	48.3584
831.136	24.1748
834.511	2.61621
837.886	16.9639
841.261	9.53711
844.635	29.292
848.01	47.1807
851.385	26.2725
854.76	26.8955
858.135	22.2666
861.51	15.0391
864.884	25.7871
868.259	43.8945
871.634	60.1289
875.009	65.084
878.384	31.6221
881.758	37.752
885.133	27.7432
888.508	15.376
891.883	48.4873
895.258	31.8184
898.632	23.6357
902.007	52.2627
905.382	94.4541
908.757	82.3438
912.132	57.3018
915.506	14.2822
918.881	9.69824
922.256	22.4023
925.631	0.267578
929.006	29.292
932.381	33.7891
935.755	30.79
939.13	48.5137
942.505	88.5215
945.88	118.284
949.255	166.356
952.63	239.407
956.004	339.348
959.379	468.469
962.754	461.282
966.129	372.967
969.504	254.068
972.878	134.934
976.253	72.1572
979.628	64.2705
983.003	17.6201
986.378	13.0928
989.752	26.7344
993.127	0.273438
996.502	5.88281
999.877	27.1816
1003.25	0.472656
1006.63	8.31641
1010	1.32324
1013.38	14.3203
1016.75	4.20019
1020.13	0.641602
1023.5	21.6943
1026.88	36.8281
1030.25	62.3369
1033.62	78.2949
1037	74.3311
1040.38	63.4531
1043.75	77.8154
1047.12	63.6406
1050.5	63.0361
1053.87	42.8047
1057.25	42.6475
1060.62	64.0801
1064	63.2588
1067.37	59.8525
1070.75	33.0674
1074.12	49.9141
1077.5	23.6025
1080.87	11.3691
1084.25	32.3887
1087.62	28.0312
1091	23.9189
1094.37	5.50488
1097.75	16.6982
1101.12	1.44824
1104.5	0.21582
1107.87	1.59766
1111.25	15.044
1114.62	1.83691
1117.99	40.0703
1121.37	54.2764
1124.74	133.639
1128.12	177.436
1131.49	125.919
1134.87	103.433
1138.24	58.2842
1141.62	50.831
1144.99	24.4219
1148.37	28.4473
1151.74	33.6484
1155.12	21.916
1158.49	33.0176
1161.87	35.9395
1165.24	33.7031
1168.62	50.4365
1171.99	35.2432
1175.37	38.8135
1178.74	40.9668
1182.12	42.8145
1185.49	24.3008
1188.87	47.5068
1192.24	72.5537
1195.62	76.4102
1198.99	51.9883
1202.37	33.582
1205.74	37.126
1209.12	44.1895
1212.49	33.8027
1215.87	23.3203
1219.24	20.5371
1222.62	0.188477
1225.99	15.2754
1229.36	11.9092
1232.74	10.668
1236.11	8.62988
1239.49	20.7422
1242.86	12.583
1246.24	7.61719
1249.61	8.09961
1252.99	0.585938
1256.36	23.0312
1259.74	39.7109
1263.11	20.8584
1266.49	19.2119
1269.86	19.0508
1273.24	26.6787
1276.61	24.3145
1279.99	16.0166
1283.36	6.18457
