Measurement: Raman, 532 nm, unoriented, Raman Data Processed
Mineral: Sillimanite
Rruff sample: R060787
Ideal chemistry: Al_2_OSiO_4_
Locality: Moragahakanda, Sri Lanka
Source: Michael Scott
Description: Mass of colorless parallel prismatic crystals
Measured chemistry: Al_2.01_Si_0.99_O_5_
Raman shift (cm-1)	intensity
162.021	0
164.913	33.55
167.806	3.56274
170.699	59.5176
173.592	44.2673
176.484	10.2974
179.377	68.9407
182.27	36.0906
185.162	99.9885
188.055	16.0691
190.948	84.0488
193.84	59.6404
196.733	67.6582
199.626	82.6189
202.519	109.112
205.411	80.8882
208.304	85.3623
211.197	97.9309
214.089	76.6177
216.982	49.5583
219.875	63.8213
222.767	12.1538
225.66	97.7571
228.553	212.122
231.446	289.931
234.338	596.91
237.231	765.419
240.124	124.336
243.016	69.4668
245.909	18.9148
248.802	82.1211
251.694	68.1453
254.587	71.3667
257.48	59.9956
260.373	62.1895
263.265	60.22
266.158	54.4014
269.051	21.2412
271.943	32.6519
274.836	24.0964
277.729	12.6594
280.621	32.3826
283.514	42.342
286.407	9.74097
289.3	58.7817
292.192	25.0967
295.085	39.0933
297.978	69.2605
300.87	196.481
303.763	356.004
306.656	649.616
309.548	855.127
312.441	726.788
315.334	240.2
318.226	126.857
321.119	54.2183
324.012	73.541
326.904	36.2612
329.797	90.7341
332.69	50.6065
335.583	24.5579
338.475	34.0447
341.368	73.5361
344.261	39.8342
347.153	22.5708
350.046	51.3765
352.939	50.1433
355.832	5.53735
358.724	37.7605
361.617	24.3574
364.51	48.8118
367.402	58.6416
370.295	48.2522
373.188	21.3
376.08	70.6421
378.973	48.0347
381.866	65.0666
384.759	49.0955
387.651	76.0801
390.544	64.2087
393.437	44.772
396.329	21.7649
399.222	20.0723
402.115	26.4265
405.007	54.0418
407.9	94.5154
410.793	148.218
413.685	45.3953
416.578	24.7959
419.471	37.5125
422.364	50.5059
425.256	21.7983
428.149	47.2275
431.042	101.29
433.934	101.075
436.827	78.7331
439.72	82.8794
442.612	31.5334
445.505	52.3547
448.398	94.0176
451.291	98.3469
454.183	151.592
457.076	229.532
459.969	103.981
462.861	60.4805
465.754	70.1223
468.647	33.7959
471.539	59.8601
474.432	116.164
477.325	84.904
480.217	119.138
483.11	201.945
486.003	212.472
488.896	93.8787
491.788	56.5557
494.681	20.7231
497.574	16.4036
500.466	68.3528
503.359	1.42505
506.252	22.5149
509.144	43.2866
512.037	47.8257
514.93	59.7236
517.823	2.89307
520.715	65.9351
523.608	41.2156
526.501	24.8379
529.393	49.1316
532.286	59.467
535.179	11.8994
538.072	7.22534
540.964	38.3079
543.857	11.2473
546.75	40.5549
549.642	25.8198
552.535	78.8254
555.428	53.4587
558.32	18.5759
561.213	37.981
564.106	5.65283
566.998	52.9087
569.891	40.3992
572.784	6.24756
575.677	51.448
578.569	36.5486
581.462	2.35376
584.355	47.6814
587.247	130.768
590.14	104.813
593.033	190.345
595.925	182.082
598.818	181.812
601.711	113.035
604.604	137.635
607.496	82.9231
610.389	67.7898
613.282	56.3032
616.174	56.9605
619.067	47.6841
621.96	76.7402
624.852	58.7466
627.745	16.3818
630.638	9.68359
633.53	36.5962
636.423	50.4912
639.316	54.9155
642.209	51.9434
645.101	16.5024
647.994	44.7109
650.887	50.752
653.779	51.6196
656.672	123.698
659.565	64.4394
662.457	43.7788
665.35	8.24023
668.243	10.4937
671.135	90.6533
674.028	20.938
676.921	14.002
679.814	15.3774
682.706	54.2197
685.599	108.001
688.492	114.891
691.384	50.5376
694.277	70.5015
697.17	82.2827
700.062	94.4453
702.955	133.688
705.848	74.3408
708.741	155.358
711.633	9.5459
714.526	105.439
717.419	1.43115
720.311	51.1333
723.204	46.0215
726.097	51.7017
728.99	91.4902
731.882	54.5283
734.775	15.9868
737.668	42.3667
740.56	34.1035
743.453	14.7769
746.346	49.5791
749.238	92.5708
752.131	62.583
755.024	27.9375
757.916	1.63818
760.809	22.8887
763.702	16.9307
766.595	37.3203
769.487	121.192
772.38	69.3403
775.273	10.9688
778.165	74.9756
781.058	49.8023
783.951	79.0029
786.843	68.1328
789.736	17.354
792.629	33.1685
795.521	54.6416
798.414	60.6309
801.307	58.4512
804.2	25.5078
807.092	31.103
809.985	46.3955
812.878	40.8828
815.77	12.3477
818.663	1.79053
821.556	0.479492
824.448	26.8848
827.341	4.15283
830.234	22.4912
833.127	25.3169
836.019	8.17285
838.912	3.66357
841.805	102.557
844.697	57.3335
847.59	44.1904
850.483	43.9312
853.375	57.6538
856.268	13.6992
859.161	66.0249
862.053	99.436
864.946	189.15
867.839	237.023
870.732	308.537
873.624	248.965
876.517	165.743
879.41	49.3501
882.302	88.0591
885.195	66.2461
888.088	114.698
890.981	84.7227
893.873	87.4639
896.766	105.261
899.659	68.7251
902.551	105.734
905.444	60.1294
908.337	60.3335
911.229	87.4956
914.122	29.2559
917.015	34.6665
919.908	14.1514
922.8	55.3384
925.693	74.1597
928.586	29.6602
931.478	78.2739
934.371	117.524
937.264	80.21
940.156	64.0698
943.049	110.576
945.942	115.951
948.835	122.873
951.727	225.211
954.62	286.604
957.513	283.63
960.405	448.418
963.298	488.608
966.191	419.362
969.083	311.74
971.976	155.649
974.869	146.304
977.761	64.1816
980.654	77.6484
983.547	14.0688
986.439	2.76074
989.332	28.3032
992.225	61.0225
995.118	45.1123
998.01	22.7925
1000.9	51.0391
1003.8	16.2231
1006.69	40.4033
1009.58	49.3682
1012.47	36.0205
1015.37	25.395
1018.26	17.8945
1021.15	41.7295
1024.05	4.97119
1026.94	72.7778
1029.83	26.4316
1032.72	26.1279
1035.62	49.0122
1038.51	15.3794
1041.4	28.7192
1044.29	91.4619
1047.19	38.3823
1050.08	23.8267
1052.97	71.2778
1055.86	28.9873
1058.76	75.7705
1061.65	48.8677
1064.54	52.8442
1067.43	9.43945
1070.33	36.2022
1073.22	52.0386
1076.11	30.6841
1079.01	8.92139
1081.9	61.5923
1084.79	39.0269
1087.68	78.6001
1090.58	50.3584
1093.47	34.4014
1096.36	39.561
1099.26	72.3828
1102.15	100.615
1105.04	84.0034
1107.93	34.79
1110.83	61.5371
1113.72	47.8227
1116.61	30.2539
1119.5	7.54199
1122.4	103.068
1125.29	141.902
1128.18	182.116
1131.07	194.043
1133.97	138.763
1136.86	95.6758
1139.75	65.1401
1142.64	90.2451
1145.54	30.8726
1148.43	24.2959
1151.32	22.9624
1154.22	40.9595
1157.11	17.5371
1160	24.8315
1162.89	42.2188
1165.79	9.90381
1168.68	108.868
1171.57	66.0327
1174.46	41.8867
1177.36	67.6421
1180.25	37.3008
1183.14	59.3745
1186.04	53.2822
1188.93	84.8574
1191.82	89.9185
1194.71	23.6118
1197.61	84.8848
1200.5	65.874
1203.39	39.1626
1206.29	22.6445
1209.18	76.0571
1212.07	23.8149
1214.96	9.59717
1217.86	80.2964
1220.75	1.63379
1223.64	53.4683
1226.53	7.27832
1229.43	96.4497
1232.32	26.1245
1235.21	81.3286
1238.1	81.5488
1241	91.21
1243.89	88.4082
1246.78	83.9658
1249.67	119.155
1252.57	62.75
1255.46	63.544
1258.35	29.2436
1261.25	32.3906
1264.14	23.0371
1267.03	11.4273
1269.92	51.1768
1272.82	125.782
1275.71	137.14
1278.6	47.0991
1281.49	88.1812
1284.39	21.6138
1287.28	94.8579
1290.17	0.225586
