Measurement: Raman, 780 nm, unoriented, Raman Data Processed
Mineral: Sillimanite
Rruff sample: R050601
Ideal chemistry: Al_2_OSiO_4_
Locality: Mogok, Burma
Source: Bill Larson
Description: Tan colored cleavage fragment from a water worn pebble
Measured chemistry: (Al_1.99_Fe^3+^_0.01_)_Î£=2_Si_1.00_O_5_
Raman shift (cm-1)	intensity
149.919	0
152.812	3.29883
155.705	50.168
158.597	32.2158
161.49	22.5791
164.383	19.3965
167.276	23.5967
170.168	23.749
173.061	42.6201
175.954	50.7988
178.846	14.6914
181.739	37.4258
184.632	48.2217
187.524	44.0469
190.417	57.6533
193.31	64.2383
196.203	43.8076
199.095	49.9531
201.988	31.4033
204.881	58.3643
207.773	67.3174
210.666	95.0371
213.559	49.1074
216.451	88.0283
219.344	104.559
222.237	129.773
225.13	181.606
228.022	269.244
230.915	436.004
233.808	1120.46
236.7	1145.69
239.593	208.049
242.486	105.031
245.378	63.8672
248.271	54.4219
251.164	19.6865
254.056	28.9756
256.949	51.5498
259.842	40.209
262.735	8.21484
265.627	9.92578
268.52	2.7207
271.413	22.2168
274.305	6.51367
277.198	18.8506
280.091	1.03906
282.983	8.88184
285.876	0.447266
288.769	32.7559
291.662	71.3144
294.554	74.3711
297.447	143.585
300.34	266.321
303.232	470.942
306.125	817.405
309.018	1527.2
311.911	1268.9
314.803	463.908
317.696	225.564
320.589	148.19
323.481	98.0732
326.374	54.3594
329.267	41.1377
332.159	38.6475
335.052	36.3643
337.945	42.0908
340.837	20.4473
343.73	7.72656
346.623	16.9346
349.516	43.457
352.408	13.3945
355.301	8.22461
358.194	20.458
361.086	16.1826
363.979	4.23828
366.872	6.2959
369.764	8.32324
372.657	16.2363
375.55	18.0811
378.442	24.1875
381.335	32.9268
384.228	18.4062
387.121	50.4131
390.013	44.0469
392.906	7.8125
395.799	11.2315
398.691	16.7539
401.584	9.24609
404.477	41.6836
407.37	104.361
410.262	102.2
413.155	20.6641
416.048	29.6299
418.94	24.3428
421.833	36.7197
424.726	21.1494
427.618	3.33398
430.511	8.45215
433.404	34.0713
436.296	47.6143
439.189	30.2275
442.082	4.16894
444.975	40.2588
447.867	43.2607
450.76	44.3193
453.653	99.2188
456.545	114.551
459.438	71.5957
462.331	41.9443
465.224	63.0254
468.116	41.1982
471.009	52.4678
473.902	70.167
476.794	100.183
479.687	105.722
482.58	158.526
485.472	109.409
488.365	46.4175
491.258	61.6865
494.151	22.2871
497.043	33.752
499.936	27.2539
502.829	29.812
505.721	25.3506
508.614	32.9985
511.507	50.2197
514.399	14.2505
517.292	29.7368
520.185	23.8145
523.077	2.73877
525.97	14.2944
528.863	26.1206
531.756	26.4985
534.648	7.5835
537.541	5.0957
540.434	14.8052
543.326	14.8643
546.219	14.7803
549.112	7.09912
552.004	8.48828
554.897	20.5405
557.79	9.36572
560.683	40.6338
563.575	5.30566
566.468	14.4175
569.361	17.6006
572.253	31.0449
575.146	8.42041
578.039	51.3125
580.931	35.3867
583.824	55.8013
586.717	104.116
589.61	160.168
592.502	226.379
595.395	232.452
598.288	162.777
601.18	108.739
604.073	95.6543
606.966	61.5864
609.858	51.6099
612.751	51.9077
615.644	28.6309
618.537	40.5117
621.429	25.3315
624.322	50.5132
627.215	37.5395
630.107	37.1592
633	31.3315
635.893	39.4605
638.785	15.729
641.678	37.0283
644.571	24.2202
647.463	32.9907
650.356	29.0791
653.249	11.542
656.141	2.76904
659.034	23.3433
661.927	22.1567
664.82	10.8066
667.712	26.8271
670.605	15.8442
673.498	33.8164
676.39	13.2446
679.283	12.8916
682.176	8.71924
685.068	18.7471
687.961	16.4805
690.854	17.7388
693.747	11.6104
696.639	29.9185
699.532	23.6289
702.425	35.4727
705.317	48.9312
708.21	95.354
711.103	101.593
713.995	52.5903
716.888	47.1089
719.781	32.8447
722.674	14.0991
725.566	16.1977
728.459	20.7446
731.352	34.7051
734.244	34.4351
737.137	10.7847
740.03	16.4175
742.923	10.9307
745.815	1.91406
748.708	10.7485
751.601	4.92236
754.493	13.8438
757.386	19.1089
760.279	9.49609
763.171	16.0947
766.064	5.52295
768.957	26.167
771.85	16.1318
774.742	6.45117
777.635	5.90869
780.528	13.6104
783.42	24.5166
786.313	16.144
789.206	14.9458
792.098	19.3345
794.991	41.4531
797.884	15.769
800.776	2.24219
803.669	5.63818
806.562	27.4932
809.455	24.1997
812.347	31.7583
815.24	29.3511
818.133	23.7251
821.025	20.709
823.918	29.0098
826.811	9.70801
829.703	27.9053
832.596	22.1763
835.489	32.3911
838.381	12.4736
841.274	44.1572
844.167	46.9995
847.06	38.248
849.952	69.8608
852.845	14.6977
855.738	14.3008
858.63	26.4028
861.523	36.3145
864.416	99.7647
867.308	159.123
870.201	222.317
873.094	227.564
875.987	146.315
878.879	95.2041
881.772	66.1641
884.665	75.9424
887.557	46.3242
890.45	32.189
893.343	9.94482
896.236	18.7632
899.128	6.64356
902.021	2.89453
904.914	5.56006
907.806	4.58984
910.699	11.8696
913.592	3.60791
916.484	17.6226
919.377	6.70312
922.27	4.98926
925.163	9.24707
928.055	6.62793
930.948	17.9439
933.841	16.0415
936.733	38.6982
939.626	43.5215
942.519	69.5869
945.411	86.2031
948.304	123.859
951.197	162.172
954.09	241.22
956.982	322.618
959.875	423.545
962.768	427.894
965.66	358.423
968.553	272.679
971.446	183.916
974.338	130.948
977.231	63.4673
980.124	58.896
983.016	46.6562
985.909	22.5762
988.802	2.33179
991.694	11.2239
994.587	6.90112
997.48	6.69287
1000.37	3.11816
1003.26	7.17383
1006.16	12.0337
1009.05	14.8984
1011.94	0.151123
1014.84	1.38135
1017.73	17.3789
1020.62	15.5217
1023.51	8.75635
1026.41	5.46802
1029.3	11.0483
1032.19	21.0796
1035.09	3.1958
1037.98	23.4106
1040.87	14.5723
1043.76	32.0225
1046.66	7.40967
1049.55	20.1052
1052.44	20.7217
1055.33	28.7375
1058.23	21.6182
1061.12	20.3926
1064.01	10.9031
1066.9	9.14404
1069.8	15.7332
1072.69	10.9668
1075.58	4.4458
1078.47	0.098877
1081.37	15.5501
1084.26	6.00391
1087.15	14.7173
1090.05	22.2881
1092.94	15.2258
1095.83	22.0491
1098.72	14.6506
1101.62	18.6809
1104.51	0.393066
1107.4	10.9707
1110.3	14.7341
1113.19	9.59741
1116.08	6.65112
1118.97	10.0605
1121.87	39.3987
1124.76	81.0054
1127.65	104.119
1130.54	43.9617
1133.44	13.7756
1136.33	18.1174
1139.22	14.2844
1142.12	9.9231
1145.01	6.27783
1147.9	34.0474
1150.79	5.0376
1153.69	0.570557
1156.58	9.13525
1159.47	7.85718
1162.36	14.8335
1165.26	11.3652
1168.15	19.9526
1171.04	27.7202
1173.93	36.4668
1176.83	0.759033
1179.72	14.9211
1182.61	19.1633
1185.51	13.2607
1188.4	43.2353
1191.29	19.4834
1194.18	16.6411
1197.08	21.5874
1199.97	26.1892
1202.86	9.25415
1205.75	37.2485
1208.65	16.1804
1211.54	6.44116
1214.43	14.9255
1217.33	9.91773
1220.22	13.2454
1223.11	0.214355
1226	21.2283
1228.9	20.3652
1231.79	8.25879
1234.68	1.5437
1237.57	8.31323
1240.47	3.24414
1243.36	11.7612
1246.25	16.0024
1249.14	3.02466
1252.04	5.0791
1254.93	3.17505
1257.82	17.835
1260.71	20.2261
1263.61	15.8403
1266.5	36.053
1269.39	32.7412
1272.29	0.655029
1275.18	23.9443
1278.07	15.5405
1280.96	10.3159
1283.86	2.61377
