Measurement: Raman, 785 nm, unoriented, Raman Data Processed
Mineral: Silver
Rruff sample: R070463
Ideal chemistry: Ag
Locality: Tsumeb mine, Tsumeb, Otavi District, Oshikoto, Namibia
Source: Michael Scott
Description: Silvery gold metallic blebs, associated with rhobohedral calcite and green prismatic malachite.
Measured chemistry: Ag ; (Hg trace)
Raman shift (cm-1)	intensity
197.092	0
199.985	23.6523
202.877	12.2578
205.77	535.527
208.663	713.688
211.555	1170.31
214.448	1910.99
217.341	2498.77
220.234	3007.26
223.126	3223.83
226.019	3741.26
228.912	3995.12
231.804	4269.65
234.697	4838.18
237.59	5467.41
240.482	5656.37
243.375	5656
246.268	5681.31
249.161	5499.16
252.053	5361.86
254.946	5417.46
257.839	5220.27
260.731	5031.82
263.624	4622.7
266.517	4310.86
269.409	3821.22
272.302	3499.32
275.195	3184.91
278.088	2961.82
280.98	2503.89
283.873	2035.75
286.766	1872.64
289.658	1533.06
292.551	1242.2
295.444	1013.61
298.337	915.742
301.229	757.344
304.122	818.951
307.015	629.789
309.907	564.92
312.8	284.103
315.693	276.168
318.585	131.164
321.478	66.5781
324.371	219.625
327.264	52.5508
330.156	2.66211
333.049	124.268
335.942	201.033
338.834	137.668
341.727	94.8809
344.62	47.332
347.512	156.367
350.405	183.131
353.298	264.768
356.19	362.086
359.083	497.113
361.976	602.68
364.869	776.15
367.761	814.676
370.654	965.756
373.547	1067.59
376.439	1099.76
379.332	1144.9
382.225	1261.1
385.118	1215.6
388.01	1220.27
390.903	1105.3
393.796	1257.3
396.688	1074.05
399.581	987.389
402.474	944.994
405.366	928.357
408.259	1037.85
411.152	1024.56
414.045	1108.38
416.937	1078.45
419.83	1051.73
422.723	1166.55
425.615	1149.08
428.508	1263.04
431.401	1399.71
434.293	1478.18
437.186	1521.56
440.079	1566.07
442.971	1728.44
445.864	1811.8
448.757	1727.24
451.65	1635.59
454.542	1641.12
457.435	1589.4
460.328	1522.69
463.22	1461.67
466.113	1313.62
469.006	1136.03
471.898	906.674
474.791	775.955
477.684	566.394
480.577	465.84
483.469	358.965
486.362	213.178
489.255	153.201
492.147	76.3945
495.04	55.7266
497.933	74.0254
500.825	103.143
503.718	11.1465
506.611	33.1094
509.503	11.6367
512.396	62.4453
515.289	7.18164
518.182	19.3203
521.074	116.578
523.967	68.543
526.86	153.408
529.752	93.9629
532.645	111.662
535.538	61.6875
538.431	92.0215
541.323	84.6289
544.216	67.7598
547.109	51.791
550.001	52.1309
552.894	115.199
555.787	133.326
558.679	119.666
561.572	36.9863
564.465	18.8633
567.357	37.9727
570.25	35.1602
573.143	24.2715
576.036	118.541
578.928	78.9844
581.821	40.2617
584.714	56.166
587.606	18.6465
590.499	88.6152
593.392	105.408
596.284	67.9883
599.177	163.977
602.07	219.713
604.963	155.898
607.855	158.654
610.748	85.3711
613.641	16.5234
616.533	116.795
619.426	128.15
622.319	49.502
625.212	141.666
628.104	44.9199
630.997	81.7188
633.89	113.049
636.782	16.4912
639.675	82.9316
642.568	103.671
645.46	137.382
648.353	77.4004
651.246	20.5645
654.139	15.7783
657.031	95.2373
659.924	37.9404
662.817	113.993
665.709	97.0723
668.602	166.827
671.495	104.083
674.388	242.802
677.28	59.3623
680.173	109.168
683.066	74.167
685.958	30.5381
688.851	118.451
691.744	71.7227
694.636	132.853
697.529	81.5879
700.422	83.4424
703.314	64.5127
706.207	0.979492
709.1	53.4951
711.993	35.5684
714.885	41.1465
717.778	119.207
720.671	141.548
723.563	97.6094
726.456	106.765
729.349	3.74121
732.241	117.39
735.134	22.0273
738.027	69.6572
740.92	52.2588
743.812	88.6592
746.705	103.689
749.598	100.957
752.49	88.8555
755.383	92.3125
758.276	87.3662
761.168	67.6592
764.061	58.3145
766.954	36.1533
769.847	76.6504
772.739	147.399
775.632	389.071
778.525	139.033
781.417	48.3184
784.31	70.6963
787.203	30.6865
790.096	66.5742
792.988	84.0166
795.881	95.0068
798.774	46.0713
801.666	74.1143
804.559	32.585
807.452	55.3506
810.344	99.0674
813.237	7.50293
816.13	24.1816
819.023	7.33106
821.915	74.6758
824.808	15.2734
827.701	8.07617
830.593	48.8184
833.486	137.609
836.379	132.741
839.271	49.2617
842.164	14.415
845.057	140.05
847.949	108.991
850.842	108.634
853.735	70.4277
856.628	65.8174
859.52	100.188
862.413	103.378
865.306	128.915
868.198	29.4219
871.091	61.0322
873.984	72.2852
876.876	147.605
879.769	186.73
882.662	110.752
885.554	127.342
888.447	88.0098
891.34	112.161
894.233	51.2617
897.125	47.8613
900.018	64.2783
902.911	131.294
905.803	79.2441
908.696	95.168
911.589	80.0039
914.481	34.3516
917.374	63.6357
920.267	47.9199
923.16	51.0312
926.052	107.915
928.945	49.9795
931.838	117.334
934.73	72.958
937.623	46.8838
940.516	42.4453
943.409	40.3809
946.301	94.3008
949.194	75.1133
952.087	153.745
954.979	52.7275
957.872	136.011
960.765	122.497
963.657	109.16
966.55	89.8223
969.443	46.8809
972.336	7.29004
975.228	7.34082
978.121	57.876
981.014	39.2324
983.906	40.2598
986.799	18.3369
989.692	15.5381
992.584	15.2334
995.477	10.5977
998.37	108.211
1001.26	32.6182
1004.15	36.751
1007.05	122.112
1009.94	87.7236
1012.83	85.9746
1015.73	118.503
1018.62	124.34
1021.51	100.948
1024.4	116.815
1027.3	119.079
1030.19	135.823
1033.08	102.01
1035.97	91.7744
1038.87	152.523
1041.76	147.126
1044.65	100.449
1047.55	120.319
1050.44	28.4521
1053.33	88.2705
1056.22	28.3926
1059.12	8.31543
1062.01	66.4004
1064.9	103.783
1067.8	67.7275
1070.69	101.55
1073.58	56.5928
1076.47	66.1445
1079.37	15.6016
1082.26	59.3857
1085.15	12.7285
1088.04	42.6592
1090.94	35.8818
1093.83	87.4394
1096.72	69.8721
1099.61	15.1484
1102.51	57.7051
1105.4	58.8877
1108.29	15.418
1111.18	42.2236
1114.08	123.46
1116.97	98.2978
1119.86	60.7363
1122.76	69.4023
1125.65	47.8184
1128.54	52.9727
1131.43	43.123
1134.33	45.2637
1137.22	39.8008
1140.11	7.32129
1143.01	53.9834
1145.9	132.552
1148.79	81.0107
1151.68	12.3975
1154.58	82.3809
1157.47	103.279
1160.36	74.9394
1163.25	52.5537
1166.15	82.4541
1169.04	131.523
1171.93	119.115
1174.82	22.0352
1177.72	37.8272
1180.61	45.9072
1183.5	31.1191
1186.39	93.5674
1189.29	151.548
1192.18	8.49707
1195.07	84.4062
1197.97	45.5156
1200.86	106.444
1203.75	76.8955
1206.64	83.5303
1209.54	103.421
1212.43	86.1689
1215.32	6.67676
1218.21	34.3906
1221.11	54.6602
1224	86.54
1226.89	59.626
1229.79	80.9697
1232.68	97.9228
1235.57	87.5664
1238.46	10.9648
1241.36	155.899
1244.25	0.526367
1247.14	6.20117
1250.04	269.971
1252.93	163.374
1255.82	94.7207
1258.71	42.8496
1261.61	8.04004
1264.5	2.64551
