Measurement: Raman, 780 nm, unoriented, Raman Data Processed
Mineral: Skutterudite
Rruff sample: R100195
Ideal chemistry: Co^3+^As_3_
Locality: Skutterud, Norway
Source: Royal Ontario Museum
Description: Massive silver metallic associated with quartz
Measured chemistry: (Co_0.90_Fe_0.08_Ni_0.05_)_Σ=1.03_(As_2.97_S_0.03_)_Σ=3.00_
Raman shift (cm-1)	intensity
160.994	0
163.887	0.107857
166.78	0.902248
169.673	0.493988
172.565	2.37442
175.458	1.28333
178.351	4.8481
181.243	4.73663
184.136	6.97074
187.029	7.59479
189.921	5.03799
192.814	7.71727
195.707	10.3886
198.6	14.8942
201.492	14.2718
204.385	11.4637
207.278	12.098
210.17	11.1519
213.063	6.84301
215.956	6.51601
218.848	2.17259
221.741	0.319542
224.634	0.396908
227.526	0.557701
230.419	1.62157
233.312	4.50071
236.205	3.96072
239.097	9.0309
241.99	10.0476
244.883	10.816
247.775	14.4611
250.668	12.1456
253.561	8.15144
256.454	6.96708
259.346	6.42265
262.239	3.43616
265.132	0.335972
268.024	2.51161
270.917	0.335159
273.81	0.145168
276.702	1.73174
279.595	0.221039
282.488	0.547386
285.38	2.2481
288.273	3.62754
291.166	0.652317
294.059	1.5169
296.951	0.915075
299.844	3.83163
302.737	1.42366
305.629	1.0936
308.522	3.8868
311.415	2.19794
314.308	2.20052
317.2	4.0158
320.093	5.1665
322.986	5.67154
325.878	3.36419
328.771	5.47167
331.664	4.65284
334.556	3.38577
337.449	1.97058
340.342	1.77302
343.234	0.19379
346.127	0.619856
349.02	0.13229
351.913	0.952026
354.805	0.688723
357.698	0.930914
360.591	1.64379
363.483	0.626478
366.376	2.50927
369.269	0.2738
372.161	1.2491
375.054	2.5491
377.947	0.251572
380.839	0.605711
383.732	1.01171
386.625	0.574125
389.518	1.87323
392.41	1.12582
395.303	2.25966
398.196	1.71125
401.088	0.118885
403.981	4.27229
406.874	4.56548
409.767	3.11706
412.659	3.09581
415.552	1.89934
418.445	1.7677
421.337	1.73293
424.23	1.74272
427.123	4.04277
430.015	3.46679
432.908	0.662529
435.801	3.51835
438.693	0.733568
441.586	1.09399
444.479	1.62853
447.372	3.26764
450.264	0.122156
453.157	1.12313
456.05	2.9371
458.942	1.38139
461.835	1.7872
464.728	0.052685
467.62	1.03744
470.513	1.22619
473.406	3.02527
476.299	1.98431
479.191	1.2347
482.084	0.179111
484.977	2.84558
487.869	2.98413
490.762	2.64476
493.655	3.49661
496.547	3.08486
499.44	2.49925
502.333	0.218075
505.226	2.57743
508.118	2.02774
511.011	2.2121
513.904	3.16795
516.796	2.75937
519.689	1.30471
522.582	2.46438
525.474	2.48334
528.367	3.48955
531.26	0.074736
534.153	0.513447
537.045	1.67475
539.938	1.88089
542.831	1.22059
545.723	6.58684
548.616	6.96656
551.509	6.07907
554.401	4.51283
557.294	4.0911
560.187	3.46098
563.08	2.63588
565.972	0.157751
568.865	1.33144
571.758	0.024256
574.65	1.89147
577.543	1.76596
580.436	1.64559
583.328	1.64262
586.221	0.297045
589.114	2.78284
592.006	2.76417
594.899	0.861393
597.792	2.02548
600.685	2.24384
603.577	2.41491
606.47	1.12934
609.363	2.45145
612.255	1.99615
615.148	1.90181
618.041	0.284039
620.933	1.6761
623.826	1.16893
626.719	1.67351
629.611	3.00795
632.504	2.5103
635.397	2.79122
638.29	3.23176
641.182	1.52208
644.075	2.09888
646.968	2.53844
649.86	2.32283
652.753	0.526026
655.646	3.06716
658.538	0.296583
661.431	1.73743
664.324	1.27984
667.217	1.44709
670.109	1.35008
673.002	1.48205
675.895	1.38493
678.787	1.57133
681.68	3.93276
684.573	1.52772
687.466	2.38608
690.358	1.90751
693.251	0.594679
696.144	1.24422
699.036	1.69268
701.929	0.247135
704.822	2.44313
707.714	1.07881
710.607	1.3621
713.5	0.86343
716.393	2.16967
719.285	1.90603
722.178	2.12728
725.071	1.06875
727.963	3.62071
730.856	0.74888
733.749	1.10713
736.641	0.928427
739.534	0.34827
742.427	0.899656
745.319	0.934515
748.212	2.4045
751.105	1.79447
753.998	0.150909
756.89	2.24903
759.783	0.643385
762.676	2.06941
765.568	0.964828
768.461	1.36831
771.354	0.674625
774.246	1.59044
777.139	0.076147
780.032	0.903193
782.925	0.009483
785.817	1.19307
788.71	0.371046
791.603	2.96791
794.495	1.80665
797.388	3.67763
800.281	0.550518
803.173	0.856222
806.066	1.91329
808.959	3.94476
811.851	1.7537
814.744	2.24701
817.637	1.74087
820.53	2.47117
823.422	1.73859
826.315	4.02792
829.208	3.55893
832.1	2.55965
834.993	2.79149
837.886	3.5544
840.779	4.02894
843.671	3.16604
846.564	4.39517
849.457	4.28015
852.349	4.22817
855.242	4.99665
858.135	5.71772
861.027	3.70125
863.92	4.10118
866.813	3.18587
869.706	3.62884
872.598	4.4103
875.491	2.70293
878.384	0.390827
881.276	0.706179
884.169	0.620489
887.062	2.97183
889.954	1.87122
892.847	0.239998
895.74	2.52371
898.632	1.13085
901.525	1.35746
904.418	0.171431
907.311	0.336426
910.203	1.68122
913.096	1.05241
915.989	0.602486
918.881	1.03411
921.774	3.56947
924.667	2.75183
927.559	0.318378
930.452	0.138212
933.345	0.332794
936.237	2.62878
939.13	2.12578
942.023	0.71393
944.916	1.96499
947.808	0.54995
950.701	2.1063
953.594	2.56632
956.486	2.93265
959.379	3.69076
962.272	0.082206
965.164	1.38658
968.057	2.40519
970.95	1.87027
973.843	0.638717
976.735	1.51271
979.628	3.936
982.521	3.20058
985.413	3.18156
988.306	0.503133
991.199	3.6522
994.091	1.25202
996.984	2.20083
999.877	3.68607
1002.77	0.545934
1005.66	0.948624
1008.55	2.48809
1011.45	2.43047
1014.34	1.65942
1017.23	2.69845
1020.13	4.09016
1023.02	1.7371
1025.91	3.11237
1028.8	1.15109
1031.7	1.26479
1034.59	1.16365
1037.48	1.11341
1040.38	2.82684
1043.27	1.38405
1046.16	1.5759
1049.05	2.77925
1051.94	4.2604
1054.84	0.991153
1057.73	1.91635
1060.62	2.75934
1063.52	2.70463
1066.41	3.11384
1069.3	0.669582
1072.19	4.03187
1075.09	3.1637
1077.98	0.037977
1080.87	2.20825
1083.77	1.91314
1086.66	1.75528
1089.55	2.24883
1092.44	1.40794
1095.34	0.640696
1098.23	1.64436
1101.12	1.22584
1104.01	0.539703
1106.91	1.82436
1109.8	0.306408
1112.69	2.38466
1115.59	0.517411
1118.48	1.27757
1121.37	1.09352
1124.26	3.02097
1127.16	0.334924
1130.05	1.13675
1132.94	1.05611
1135.83	2.08042
1138.73	1.58697
1141.62	1.35345
1144.51	0.694706
1147.4	0.941318
1150.3	1.53864
1153.19	0.184173
1156.08	4.76593
1158.97	0.664478
1161.87	0.388772
1164.76	0.664703
1167.65	0.523499
1170.55	1.25682
1173.44	2.06622
1176.33	1.82045
1179.22	0.160348
1182.12	2.54551
1185.01	1.11855
1187.9	3.50395
1190.8	2.53123
1193.69	1.02694
1196.58	1.63679
1199.47	2.18858
1202.37	0.829206
1205.26	0.824997
1208.15	1.89088
1211.04	2.72386
1213.94	2.97615
1216.83	2.55559
1219.72	2.38914
1222.62	1.46185
1225.51	1.98475
1228.4	1.12561
1231.29	1.62076
1234.18	1.39242
1237.08	3.05263
1239.97	1.28856
1242.86	1.63917
1245.76	2.73247
1248.65	1.62299
1251.54	0.508114
1254.43	0.243153
1257.33	1.02866
1260.22	3.09464
1263.11	2.51028
1266.01	0.317892
1268.9	2.08802
1271.79	3.59256
1274.68	3.6541
1277.58	2.21591
1280.47	1.76934
1283.36	3.22237
