Measurement: Raman, 780 nm, unoriented, Raman Data Processed
Mineral: Skutterudite
Rruff sample: R050593
Ideal chemistry: Co^3+^As_3_
Locality: Bou Azzer, Morocco
Source: Marcus Origlieri
Description: Gray metallic, massive to coarsely crystalline
Measured chemistry: (Co_0.86_Fe_0.11_Ni_0.07_)_Σ=1.04_(As_2.93_S_0.07_)_Σ=3.00_
Raman shift (cm-1)	intensity
120.992	0
124.367	14.0547
127.742	10.039
131.117	7.7565
134.492	0.861286
137.867	2.72247
141.241	4.34668
144.616	0.981712
147.991	0.175087
151.366	1.2356
154.741	1.42915
158.115	1.72769
161.49	0.235516
164.865	1.28112
168.24	2.84707
171.615	0.908949
174.989	0.508596
178.364	0.544609
181.739	5.24723
185.114	5.90404
188.489	7.23714
191.863	11.2121
195.238	16.9097
198.613	19.5848
201.988	10.368
205.363	7.46857
208.738	7.86496
212.112	9.84721
215.487	13.0984
218.862	6.59974
222.237	2.53518
225.612	3.18653
228.987	3.01211
232.361	2.99914
235.736	3.67445
239.111	4.07586
242.486	6.22672
245.861	7.14786
249.235	7.21113
252.61	7.68149
255.985	10.8277
259.36	3.8224
262.735	3.58052
266.109	2.95463
269.484	0.272705
272.859	0.516356
276.234	0.282711
279.609	0.214552
282.983	0.187878
286.358	0.758936
289.733	0.957935
293.108	1.06669
296.483	1.2919
299.858	1.27884
303.232	0.986502
306.607	1.24929
309.982	1.15192
313.357	1.39937
316.732	2.09396
320.106	2.11866
323.481	1.77147
326.856	1.4362
330.231	2.6106
333.606	1.35859
336.981	0.725347
340.355	1.08658
343.73	0.537107
347.105	0.131541
350.48	0.832053
353.855	0.404626
357.229	0.696311
360.604	0.144799
363.979	0.001701
367.354	1.2557
370.729	1.10085
374.103	0.266533
377.478	0.290283
380.853	0.262074
384.228	0.470828
387.603	0.186443
390.978	0.261855
394.352	0.471992
397.727	0.594293
401.102	1.99835
404.477	0.882016
407.852	1.44815
411.226	0.656949
414.601	1.38232
417.976	1.8238
421.351	2.10002
424.726	1.30307
428.101	1.83546
431.475	1.9
434.85	1.77958
438.225	1.58324
441.6	1.30387
444.975	0.5489
448.349	0.338627
451.724	0.552025
455.099	0.46489
458.474	1.29534
461.849	0.07972
465.224	0.965736
468.598	0.230282
471.973	0.516738
475.348	1.26862
478.723	0.529887
482.098	0.116663
485.472	1.09847
488.847	1.20943
492.222	0.97516
495.597	1.41311
498.972	2.5191
502.346	0.719968
505.721	0.938448
509.096	0.658579
512.471	1.74418
515.846	1.5427
519.221	1.46191
522.595	1.11978
525.97	0.919079
529.345	2.07118
532.72	1.79794
536.095	0.196566
539.469	1.23292
542.844	0.546871
546.219	1.12192
549.594	0.514262
552.969	1.33215
556.343	2.12997
559.718	0.394142
563.093	1.48859
566.468	1.02263
569.843	0.988996
573.217	0.664094
576.592	0.503365
579.967	1.22986
583.342	0.033854
586.717	0.025367
590.092	0.046145
593.466	1.2508
596.841	1.49261
600.216	2.17379
603.591	0.862526
606.966	0.593885
610.341	1.69552
613.715	1.20151
617.09	0.181691
620.465	1.22939
623.84	0.167469
627.215	0.948277
630.589	1.18131
633.964	0.689746
637.339	0.912507
640.714	0.710271
644.089	0.813301
647.463	1.04841
650.838	1.32817
654.213	1.09879
657.588	0.182423
660.963	1.2126
664.337	1.848
667.712	0.732372
671.087	0.885609
674.462	0.115938
677.837	0.053911
681.212	1.15763
684.586	0.842515
687.961	1.4271
691.336	0.192645
694.711	0.138641
698.086	0.183164
701.461	0.3045
704.835	0.167342
708.21	0.810208
711.585	0.726065
714.96	0.53834
718.335	0.625232
721.709	0.636986
725.084	1.46615
728.459	1.38186
731.834	0.401858
735.209	0.51502
738.583	0.305381
741.958	0.492169
745.333	0.946578
748.708	0.611277
752.083	0.521186
755.457	0.829856
758.832	1.62212
762.207	1.01278
765.582	0.709575
768.957	0.93192
772.332	0.13619
775.706	1.1543
779.081	0.73935
782.456	0.171238
785.831	0.222641
789.206	0.315363
792.58	0.131914
795.955	0.935317
799.33	1.04637
802.705	0.731428
806.08	0.547267
809.455	0.596452
812.829	0.755812
816.204	1.41376
819.579	0.429874
822.954	2.30989
826.329	1.01953
829.703	2.09222
833.078	1.79044
836.453	1.84374
839.828	1.97504
843.203	2.37722
846.577	1.89702
849.952	1.88131
853.327	2.28488
856.702	1.01005
860.077	1.9426
863.452	2.01571
866.826	2.43612
870.201	2.28409
873.576	1.73097
876.951	1.64638
880.326	1.77858
883.7	1.89326
887.075	1.36148
890.45	0.88285
893.825	0.625883
897.2	0.758127
900.574	0.810319
903.949	0.682208
907.324	0.377278
910.699	0.573332
914.074	1.55875
917.449	1.67763
920.823	0.422781
924.198	0.474946
927.573	0.747709
930.948	0.458848
934.323	1.1998
937.697	0.537567
941.072	0.926526
944.447	0.837109
947.822	0.684084
951.197	0.515463
954.572	1.51757
957.946	1.73154
961.321	1.12822
964.696	0.570428
968.071	0.928421
971.446	0.730903
974.82	1.74459
978.195	1.37118
981.57	1.72915
984.945	0.450829
988.32	1.32772
991.694	1.37119
995.069	0.930005
998.444	0.717834
1001.82	0.925501
1005.19	1.0958
1008.57	0.547488
1011.94	1.06108
1015.32	0.965576
1018.69	0.275831
1022.07	0.672886
1025.44	0.216751
1028.82	1.11317
1032.19	2.23514
1035.57	1.0255
1038.94	1.4624
1042.32	1.37193
1045.69	1.87808
1049.07	0.47126
1052.44	0.793582
1055.82	1.09678
1059.19	1.47772
1062.57	1.24958
1065.94	0.908109
1069.32	0.988362
1072.69	0.738963
1076.07	0.942495
1079.44	0.522704
1082.81	1.3561
1086.19	1.77449
1089.56	0.908535
1092.94	0.877933
1096.31	0.313353
1099.69	0.032215
1103.06	1.66899
1106.44	0.373209
1109.81	0.568028
1113.19	0.388882
1116.56	0.52333
1119.94	1.14494
1123.31	0.888739
1126.69	0.057837
1130.06	0.68513
1133.44	1.61564
1136.81	1.01642
1140.19	1.39027
1143.56	0.725234
1146.94	0.877563
1150.31	0.773304
1153.69	1.05358
1157.06	0.95635
1160.43	0.544145
1163.81	0.940105
1167.18	0.969387
1170.56	1.83594
1173.93	1.58288
1177.31	0.724063
1180.68	0.631384
1184.06	1.26886
1187.43	1.66471
1190.81	0.553465
1194.18	1.95026
1197.56	0.46022
1200.93	0.116628
1204.31	1.87491
1207.68	1.91936
1211.06	0.944661
1214.43	0.787106
1217.81	1.31437
1221.18	1.75638
1224.56	0.868436
1227.93	1.42643
1231.31	1.19486
1234.68	0.144908
1238.06	1.21829
1241.43	0.590597
1244.81	0.311628
1248.18	1.27965
1251.56	1.08478
1254.93	1.30487
1258.31	1.29557
1261.68	0.926917
1265.05	0.822716
1268.43	1.79005
1271.8	1.94508
1275.18	2.39191
1278.55	0.908854
1281.93	1.77116
1285.3	0.618586
