Measurement: Raman, 780 nm, unoriented, Raman Data Processed
Mineral: Skutterudite
Rruff sample: R070528
Ideal chemistry: Co^3+^As_3_
Locality: Cobalt, Coleman Township, Timiskamig County, Ontario, Canada
Source: James Shigley
Description: Silver-grey metallic massive and radiating prismatic crystals
Measured chemistry: (Co_0.82_Fe_0.12_Ni_0.09_)_Σ=1.03_(As_2.99_S_0.01_)_Σ=3.00_ ; (Note: dark phase is lollingite, (Fe_0.69_Co_0.23_Ni_0.11_)_Σ=1.03_(As_1.98_S_0.01_)_Σ=2.00_) Bright spots are native bismuth
Raman shift (cm-1)	intensity
183.172	0
186.065	0.743427
188.957	0.895618
191.85	0.688804
194.743	2.31256
197.635	4.65029
200.528	3.74461
203.421	4.79045
206.313	5.2619
209.206	3.91486
212.099	2.77219
214.992	1.79847
217.884	0.2682
220.777	0.039442
223.67	0.148903
226.562	0.675405
229.455	0.271299
232.348	1.5105
235.24	2.89958
238.133	6.02531
241.026	4.79058
243.918	5.24285
246.811	6.19641
249.704	5.02332
252.597	4.68353
255.489	2.48952
258.382	1.36471
261.275	0.716739
264.167	1.28338
267.06	0.146951
269.953	0.652951
272.846	0.452173
275.738	1.05863
278.631	0.387594
281.524	0.762603
284.416	1.04963
287.309	0.669773
290.202	0.916833
293.094	1.76921
295.987	2.3373
298.88	1.39709
301.772	2.15992
304.665	2.37933
307.558	1.80455
310.45	1.91203
313.343	2.04413
316.236	3.23084
319.129	2.75163
322.021	1.40918
324.914	2.43744
327.807	1.0591
330.699	1.45049
333.592	1.18981
336.485	0.920607
339.377	1.02451
342.27	0.30903
345.163	1.5955
348.056	0.917127
350.948	0.102984
353.841	0.063467
356.734	0.453952
359.626	0.544191
362.519	1.7003
365.412	0.121289
368.305	0.428465
371.197	0.029054
374.09	0.708872
376.983	0.8943
379.875	0.349397
382.768	0.810167
385.661	0.068203
388.553	0.050299
391.446	0.04498
394.339	0.697956
397.231	0.763246
400.124	0.593745
403.017	1.15833
405.909	0.926651
408.802	0.622381
411.695	0.719747
414.588	0.594564
417.48	0.540585
420.373	1.001
423.266	1.35488
426.158	0.028345
429.051	0.391631
431.944	1.28896
434.837	0.215124
437.729	0.093573
440.622	0.535782
443.515	0.413105
446.407	0.984251
449.3	0.038266
452.193	0.712602
455.085	1.09895
457.978	0.408403
460.871	0.68585
463.764	0.646501
466.656	0.793813
469.549	0.049592
472.442	0.665934
475.334	0.932383
478.227	0.042373
481.12	0.892958
484.012	1.03362
486.905	0.094788
489.798	0.486942
492.69	0.220647
495.583	0.69081
498.476	0.739779
501.369	0.943347
504.261	1.12352
507.154	0.54842
510.047	0.120395
512.939	0.925132
515.832	1.56184
518.725	1.05538
521.617	1.39176
524.51	0.994104
527.403	0.713494
530.296	0.219241
533.188	0.113675
536.081	0.060678
538.974	0.713335
541.866	1.00633
544.759	1.33849
547.652	1.38241
550.544	0.230754
553.437	1.35475
556.33	0.829959
559.222	0.731828
562.115	0.071542
565.008	0.449869
567.901	0.08246
570.793	0.079218
573.686	0.883179
576.579	0.658522
579.471	0.746561
582.364	1.17294
585.257	0.409564
588.149	0.334334
591.042	0.785495
593.935	0.737562
596.828	0.09803
599.72	0.180591
602.613	0.238508
605.506	1.48139
608.398	1.59006
611.291	0.380681
614.184	0.276103
617.077	0.533551
619.969	0.071402
622.862	0.346063
625.755	0.748275
628.647	0.793697
631.54	0.350777
634.433	0.960997
637.325	0.402102
640.218	0.317906
643.111	0.244361
646.004	0.269631
648.896	0.14856
651.789	0.746197
654.682	0.188761
657.574	0.121635
660.467	0.426958
663.36	0.560156
666.252	1.12932
669.145	0.316022
672.038	0.063742
674.931	0.599694
677.823	0.607961
680.716	0.428798
683.609	0.410077
686.501	0.893783
689.394	1.49574
692.287	0.52866
695.179	1.5256
698.072	0.094633
700.965	1.29108
703.857	0.247766
706.75	0.795621
709.643	0.216065
712.535	0.617067
715.428	1.36032
718.321	0.022727
721.214	0.551118
724.106	1.34852
726.999	0.19808
729.892	0.583949
732.784	0.508014
735.677	0.270872
738.57	0.448833
741.462	0.534829
744.355	0.857923
747.248	0.506309
750.141	0.923665
753.033	0.056201
755.926	0.24733
758.819	0.247228
761.711	0.07766
764.604	0.198619
767.497	0.693288
770.389	1.49604
773.282	1.25106
776.175	0.878059
779.068	0.71779
781.96	0.601437
784.853	0.357168
787.746	0.991706
790.638	0.516571
793.531	0.467619
796.424	0.303658
799.317	0.437195
802.209	0.17007
805.102	0.157358
807.995	0.071718
810.887	0.887629
813.78	0.850872
816.673	1.21337
819.565	0.273674
822.458	0.232425
825.351	1.06987
828.244	0.946302
831.136	1.0336
834.029	0.920587
836.922	0.924673
839.814	2.35365
842.707	1.63755
845.6	0.927823
848.492	1.15113
851.385	1.036
854.278	1.04806
857.17	1.31707
860.063	0.67463
862.956	0.690281
865.849	0.315938
868.741	1.60298
871.634	0.74186
874.527	1.36623
877.419	0.091117
880.312	0.192455
883.205	0.424113
886.097	0.556709
888.99	0.715148
891.883	0.866361
894.775	0.292322
897.668	0.732816
900.561	0.172102
903.454	0.161077
906.346	0.639831
909.239	0.253271
912.132	0.39813
915.024	0.624218
917.917	0.504621
920.81	1.31131
923.702	0.200608
926.595	0.426112
929.488	0.090459
932.381	0.025398
935.273	0.525095
938.166	0.363678
941.059	0.865766
943.951	1.00912
946.844	0.901598
949.737	0.33579
952.63	0.806779
955.522	0.891622
958.415	0.530265
961.308	0.629423
964.2	0.084108
967.093	0.798062
969.986	0.969198
972.878	0.077218
975.771	0.591139
978.664	0.081388
981.557	0.600555
984.449	1.20622
987.342	1.37273
990.235	1.26381
993.127	0.990041
996.02	0.393202
998.913	0.617969
1001.8	0.908171
1004.7	0.302712
1007.59	0.505183
1010.48	0.551772
1013.38	0.862225
1016.27	0.134433
1019.16	0.742847
1022.05	0.867069
1024.95	1.01631
1027.84	1.08651
1030.73	0.848376
1033.62	0.147059
1036.52	0.366313
1039.41	1.79086
1042.3	0.338036
1045.2	1.1366
1048.09	1.06472
1050.98	0.981663
1053.87	1.39512
1056.77	0.2472
1059.66	1.5427
1062.55	1.36585
1065.44	1.49285
1068.34	0.906947
1071.23	0.486092
1074.12	0.580092
1077.02	0.232702
1079.91	1.04816
1082.8	0.125525
1085.69	0.75658
1088.59	0.550958
1091.48	0.694788
1094.37	0.707984
1097.26	0.188977
1100.16	0.660013
1103.05	0.760692
1105.94	1.51855
1108.84	0.131825
1111.73	1.64746
1114.62	0.430396
1117.51	1.36635
1120.41	1.31318
1123.3	0.049424
1126.19	0.483024
1129.08	0.630656
1131.98	0.407038
1134.87	0.77769
1137.76	0.87128
1140.65	1.86176
1143.55	0.823769
1146.44	0.315609
1149.33	0.474091
1152.23	0.916121
1155.12	0.023027
1158.01	0.564464
1160.9	0.648922
1163.8	0.326983
1166.69	0.125913
1169.58	0.167805
1172.47	1.25977
1175.37	1.23749
1178.26	0.782269
1181.15	1.05863
1184.05	0.488187
1186.94	0.743422
1189.83	0.55112
1192.72	0.769863
1195.62	0.588922
1198.51	1.83457
1201.4	0.810153
1204.29	0.774286
1207.19	0.972391
1210.08	1.5238
1212.97	0.005668
1215.87	0.30472
1218.76	0.473264
1221.65	0.334597
1224.54	0.844016
1227.44	0.81082
1230.33	0.420788
1233.22	1.09637
1236.11	1.21886
1239.01	1.76519
1241.9	0.686823
1244.79	1.37677
1247.68	1.50278
1250.58	1.83588
1253.47	0.020007
1256.36	1.1201
1259.26	1.39482
1262.15	0.165582
1265.04	1.09767
1267.93	0.903565
1270.83	0.795293
1273.72	0.419892
1276.61	0.026991
1279.5	0.882197
1282.4	0.183063
