Measurement: Raman, 532 nm, unoriented, Raman Data Processed
Mineral: Soddyite
Rruff sample: R060361
Ideal chemistry: (U^6+^O_2_)_2_SiO_4_2H_2_O
Locality: Musonoi Extension, near Kolwezi, Shaba Province, Zaire
Source: Michael Scott
Description: Yellow pyramidal crystals associated with light green malachite and dark green brochantite
Raman shift (cm-1)	intensity
163.292	0
166.185	164.09
169.077	376.747
171.97	407.894
174.863	312.471
177.755	313.271
180.648	374.31
183.541	502.427
186.433	608.321
189.326	650.883
192.219	688.739
195.112	647.051
198.004	556.553
200.897	553.098
203.79	588.801
206.682	599.775
209.575	638.43
212.468	674.232
215.36	914.043
218.253	1103.32
221.146	1031.94
224.038	783.838
226.931	547.912
229.824	440.315
232.717	382.693
235.609	281.969
238.502	189.748
241.395	151.619
244.287	161.705
247.18	117.541
250.073	117.598
252.965	131.15
255.858	148.684
258.751	126.324
261.644	21.3867
264.536	97.1758
267.429	34.7148
270.322	48.707
273.214	53.2832
276.107	29.3105
279	116.904
281.892	257.588
284.785	394.781
287.678	614.303
290.571	782.279
293.463	748.797
296.356	586.346
299.249	612.396
302.141	614.547
305.034	746.814
307.927	876.963
310.82	935.519
313.712	800.133
316.605	544.549
319.498	396.168
322.39	281.312
325.283	168.766
328.176	124.748
331.068	92.4727
333.961	42.5566
336.854	105.281
339.747	129.307
342.639	138.867
345.532	129.674
348.425	137.773
351.317	119.643
354.21	98.0723
357.103	156.615
359.995	185.988
362.888	208.615
365.781	198.695
368.673	145.867
371.566	45.5977
374.459	15.8633
377.352	18.3906
380.244	37.1523
383.137	31.8848
386.03	36.8105
388.922	67.4648
391.815	19.4082
394.708	29.4629
397.601	13.4141
400.493	13.1621
403.386	54.8359
406.279	126.453
409.171	110.027
412.064	131.328
414.957	172.481
417.849	93.8242
420.742	24.3047
423.635	64.4922
426.527	9.05469
429.42	28.207
432.313	87.9727
435.206	150.672
438.098	170.106
440.991	170.019
443.884	118.988
446.776	101.363
449.669	152.465
452.562	192.051
455.454	254.801
458.347	352.684
461.24	347.188
464.133	266.09
467.025	216.539
469.918	150.543
472.811	41.1172
475.703	18.6562
478.596	9.92578
481.489	16.5781
484.382	48.2344
487.274	27.7344
490.167	62.3945
493.06	4.05078
495.952	10.5781
498.845	82.1875
501.738	153.852
504.63	135.406
507.523	108.144
510.416	114.973
513.308	134.215
516.201	139.316
519.094	95.5938
521.987	52.2266
524.879	118.723
527.772	165.977
530.665	59.2148
533.557	125.699
536.45	165.488
539.343	99.6602
542.236	50.8086
545.128	67.8398
548.021	66.8789
550.914	85.7422
553.806	119.332
556.699	23.4766
559.592	72.1562
562.484	157.156
565.377	186.961
568.27	208.863
571.163	172.316
574.055	114.504
576.948	6.37891
579.841	4.69922
582.733	161.356
585.626	279.391
588.519	453.242
591.411	382.453
594.304	255.129
597.197	153.375
600.09	123.898
602.982	68.5312
605.875	163.777
608.768	273.254
611.66	251.812
614.553	205.481
617.446	152.875
620.338	69.418
623.231	59.207
626.124	110.113
629.016	88.4102
631.909	149.981
634.802	201.223
637.695	166.938
640.587	7.80078
643.48	74.6875
646.373	17.0781
649.265	158.641
652.158	162.371
655.051	208.609
657.943	143.828
660.836	185.164
663.729	98.3125
666.622	27.0703
669.514	99.4258
672.407	76.8516
675.3	159.199
678.192	120.547
681.085	161.328
683.978	183.797
686.87	156.918
689.763	196.219
692.656	122.234
695.549	127.172
698.441	199.719
701.334	146.719
704.227	42.0078
707.119	82.8516
710.012	263.305
712.905	307.66
715.798	217.672
718.69	77.7383
721.583	2.01953
724.476	142.965
727.368	142.84
730.261	156.695
733.154	140.254
736.046	136.004
738.939	102.391
741.832	25.3438
744.725	36.5273
747.617	142.953
750.51	144.383
753.403	124.012
756.295	38.5938
759.188	21.5703
762.081	12.2969
764.973	36.9844
767.866	5.22656
770.759	29.0977
773.652	75.1953
776.544	145.41
779.437	148.578
782.33	108.793
785.222	124.852
788.115	116.801
791.008	304.148
793.9	383.664
796.793	318.727
799.686	341.91
802.578	448.301
805.471	572.016
808.364	720.988
811.257	948.082
814.149	1554.54
817.042	2477.46
819.935	3640.23
822.827	5160.93
825.72	7015.73
828.613	8374.44
831.505	7329.74
834.398	4260.81
837.291	2239.93
840.184	1240.64
843.076	763.477
845.969	567.738
848.862	331.801
851.754	257.953
854.647	144.492
857.54	114.652
860.433	72.1211
863.325	92.3242
866.218	7.94141
869.111	127.066
872.003	22.4453
874.896	93.9883
877.789	79.2578
880.681	69.0273
883.574	7.84766
886.467	37.7656
889.36	118.613
892.252	198.457
895.145	242.953
898.038	270.5
900.93	289.727
903.823	257.652
906.716	290.785
909.608	318.219
912.501	244.785
915.394	219.445
918.287	316.887
921.179	277.305
924.072	203.734
926.965	162.731
929.857	204.078
932.75	70.2539
935.643	65.5781
938.535	15.2891
941.428	17.7617
944.321	86.8633
947.213	161.809
950.106	91.4844
952.999	204.215
955.892	163.523
958.784	175.828
961.677	112.812
964.57	46.3047
967.462	82.5664
970.355	24.6328
973.248	143.949
976.14	138.894
979.033	269.508
981.926	267.301
984.819	268.047
987.711	333.934
990.604	385.144
993.497	221.375
996.389	51.875
999.282	91.9297
1002.17	262.176
1005.07	314.387
1007.96	366.859
1010.85	442.367
1013.75	528.961
1016.64	683.094
1019.53	766.426
1022.42	834.266
1025.32	768.684
1028.21	761.281
1031.1	545.477
1033.99	422.523
1036.89	421.867
1039.78	187.016
1042.67	57.418
1045.57	107.129
1048.46	70.3633
1051.35	72.9805
1054.24	159.629
1057.14	195.098
1060.03	109.008
1062.92	3.19922
1065.81	47.4375
1068.71	113.859
1071.6	43.2344
1074.49	58.8555
1077.38	192.965
1080.28	163.441
1083.17	128.133
1086.06	113.047
1088.96	117.234
1091.85	132.731
1094.74	246.477
1097.63	88.3438
1100.53	123.996
1103.42	86.9648
1106.31	222.184
1109.2	180.578
1112.1	250.734
1114.99	132.238
1117.88	243.981
1120.78	246.762
1123.67	213.438
1126.56	54.6719
1129.45	62.1406
1132.35	53.3008
1135.24	176.473
1138.13	152.512
1141.02	71.3125
1143.92	72.7461
1146.81	49.543
1149.7	110.746
1152.6	155.523
1155.49	200.156
1158.38	159.051
1161.27	64.4609
1164.17	28.9375
1167.06	151.629
1169.95	122.695
1172.84	156.594
1175.74	30.8516
1178.63	45.0938
1181.52	75.3711
1184.41	113.324
1187.31	76.2227
1190.2	122.512
1193.09	64.3594
1195.99	108.824
1198.88	210.777
1201.77	184.527
1204.66	82.1328
1207.56	147.227
1210.45	259.969
1213.34	299.394
1216.23	292.5
1219.13	133.336
1222.02	69.3398
1224.91	127.957
1227.81	166.566
1230.7	165.644
1233.59	178.769
1236.48	110.812
1239.38	62.1562
1242.27	161.121
1245.16	115.934
1248.05	252.039
1250.95	315.414
1253.84	290.738
1256.73	185.613
1259.62	152.309
1262.52	199.801
1265.41	169.5
1268.3	271.156
1271.2	278.262
1274.09	198.555
1276.98	82.5156
1279.87	145.539
1282.77	33.9766
1285.66	2.04688
1288.55	12.5273
1291.44	69.8398
1294.34	85.6523
1297.23	85.0078
1300.12	191.66
1303.02	0
