Measurement: Raman, 532 nm, unoriented, Raman Data Processed
Mineral: Soddyite
Rruff sample: R060407
Ideal chemistry: (U^6+^O_2_)_2_SiO_4_2H_2_O
Locality: Palette, Northern Territory, Australia
Source: American Museum of Natural History
Description: Pale yellow consolidated earthy powder
Measured chemistry: (U_1.00_O_2_)_2_Si_1.00_O_4_Â·2H_2_O
Raman shift (cm-1)	intensity
187.941	0
190.833	32.9624
193.726	29.2095
196.619	14.2599
199.512	6.94076
202.404	30.5056
205.297	55.5689
208.19	83.8943
211.082	62.7478
213.975	76.7637
216.868	123.461
219.761	124.066
222.653	141.591
225.546	103.658
228.439	77.9385
231.331	36.1718
234.224	12.1188
237.117	8.20523
240.009	12.8004
242.902	21.163
245.795	24.1207
248.688	32.9985
251.58	24.4487
254.473	1.50087
257.366	6.48412
260.258	9.45943
263.151	2.4461
266.044	5.08994
268.936	28.3217
271.829	20.6626
274.722	4.49058
277.615	6.53859
280.507	18.0055
283.4	39.4919
286.293	84.6643
289.185	104.442
292.078	113.208
294.971	93.1972
297.863	111.578
300.756	107.532
303.649	113.593
306.541	94.1237
309.434	67.2536
312.327	26.832
315.22	8.89153
318.112	23.0736
321.005	3.53369
323.898	2.34948
326.791	1.57
329.683	2.86418
332.576	1.88323
335.469	5.82352
338.361	20.2652
341.254	8.85344
344.147	4.204
347.039	12.1732
349.932	28.9866
352.825	32.125
355.717	45.4036
358.61	43.5681
361.503	32.8194
364.396	44.4939
367.288	49.6122
370.181	50.4053
373.074	70.2195
375.966	62.6656
378.859	92.779
381.752	82.4596
384.644	77.9273
387.537	66.0739
390.43	87.1877
393.323	76.2001
396.215	59.8434
399.108	58.6901
402.001	49.0227
404.894	54.2481
407.786	14.6287
410.679	1.74399
413.572	11.091
416.464	22.0817
419.357	26.8744
422.25	47.762
425.142	38.0687
428.035	63.8583
430.928	79.1643
433.82	88.1071
436.713	105.888
439.606	112.333
442.499	101.547
445.391	95.1124
448.284	100.441
451.177	108.64
454.069	104.043
456.962	87.5366
459.855	94.0131
462.748	74.2953
465.64	49.7371
468.533	45.0757
471.426	43.386
474.318	30.3743
477.211	27.008
480.104	16.1592
482.996	0.544924
485.889	2.27321
488.782	7.07192
491.675	9.11965
494.567	31.4289
497.46	14.0396
500.353	4.85792
503.245	3.3976
506.138	2.07802
509.031	2.18505
511.923	6.30267
514.816	15.209
517.709	10.6036
520.602	14.5965
523.494	14.8107
526.387	22.3926
529.28	29.4013
532.172	7.65655
535.065	31.7385
537.958	18.7148
540.851	23.232
543.743	29.3225
546.636	35.4922
549.529	40.2113
552.421	44.6716
555.314	54.6943
558.207	68.1171
561.099	70.3932
563.992	62.0825
566.885	87.0769
569.778	101.76
572.67	105.002
575.563	106.811
578.456	82.1594
581.348	102.135
584.241	97.4123
587.134	135.227
590.027	111.912
592.919	97.9699
595.812	90.8082
598.705	80.5271
601.597	76.2156
604.49	57.3144
607.383	43.3973
610.275	27.3729
613.168	35.5318
616.061	36.9452
618.953	19.3181
621.846	0.356778
624.739	29.6768
627.632	4.74642
630.524	1.39834
633.417	0.768082
636.31	1.72312
639.202	41.0092
642.095	38.768
644.988	44.4843
647.881	2.24383
650.773	12.4107
653.666	0.372304
656.559	20.6572
659.451	46.3767
662.344	55.8564
665.237	38.3605
668.13	56.0114
671.022	86.8642
673.915	106.358
676.808	133.484
679.7	116.34
682.593	144.275
685.486	135.308
688.378	136.169
691.271	116.978
694.164	68.2391
697.057	27.6613
699.949	33.5037
702.842	25.6344
705.735	26.7184
708.627	16.7707
711.52	5.33299
714.413	11.8862
717.305	8.40282
720.198	0.274489
723.091	1.59142
725.984	10.1039
728.876	7.60798
731.769	25.6848
734.662	39.4092
737.554	75.9473
740.447	111.142
743.34	112.387
746.232	128.475
749.125	136.029
752.018	179.23
754.91	161.534
757.803	195.479
760.696	214.177
763.589	247.31
766.481	239.15
769.374	267.709
772.267	265.162
775.159	264.307
778.052	250.468
780.945	281.142
783.838	293.898
786.73	292.817
789.623	260.739
792.516	260.538
795.408	282.555
798.301	284.896
801.194	311.494
804.087	308.943
806.979	344.65
809.872	418.427
812.765	487.337
815.657	636.795
818.55	839.134
821.443	1127.41
824.335	1413.89
827.228	1714.3
830.121	1832.8
833.014	1574.59
835.906	1085.05
838.799	667.666
841.692	454.215
844.584	294.793
847.477	202.977
850.37	148.369
853.263	93.9947
856.155	60.733
859.048	12.9006
861.941	4.15091
864.833	10.7537
867.726	4.91717
870.619	3.47712
873.511	0.866757
876.404	0.097908
879.297	2.63855
882.189	5.86189
885.082	5.83785
887.975	25.5492
890.868	18.1032
893.76	1.97126
896.653	31.8664
899.546	16.1351
902.438	46.0757
905.331	43.8641
908.224	56.1394
911.116	51.6944
914.009	38.2737
916.902	56.297
919.795	50.6706
922.687	35.5355
925.58	50.0812
928.473	67.3719
931.365	62.0262
934.258	83.3147
937.151	59.9344
940.044	48.8579
942.936	8.83131
945.829	23.6395
948.722	13.8715
951.614	4.43606
954.507	0.175092
957.4	0.626005
960.293	0.320249
963.185	24.0492
966.078	22.7129
968.971	60.8839
971.863	7.49793
974.756	9.238
977.649	31.003
980.541	31.5912
983.434	31.3816
986.327	7.14191
989.22	3.86445
992.112	3.94061
995.005	15.621
997.898	19.3259
1000.79	41.7636
1003.68	23.328
1006.58	31.2619
1009.47	26.8498
1012.36	69.5707
1015.25	101.487
1018.15	113.901
1021.04	131.457
1023.93	119.755
1026.83	98.1614
1029.72	81.2619
1032.61	57.2728
1035.5	72.6924
1038.4	55.8157
1041.29	26.6717
1044.18	32.2435
1047.07	17.7005
1049.97	6.98205
1052.86	17.5385
1055.75	3.67189
1058.64	19.8418
1061.54	4.0229
1064.43	11.0819
1067.32	0.505486
1070.21	27.5412
1073.11	16.3504
1076	1.80136
1078.89	17.7084
1081.79	10.7515
1084.68	29.5863
1087.57	1.36126
1090.46	7.67001
1093.36	8.78433
1096.25	1.29523
1099.14	0.703886
1102.04	14.7764
1104.93	25.0823
1107.82	20.1208
1110.71	28.1709
1113.61	20.1619
1116.5	20.9156
1119.39	27.6886
1122.28	33.2808
1125.18	16.8299
1128.07	48.7935
1130.96	35.5737
1133.86	11.9201
1136.75	3.71355
1139.64	2.22194
1142.53	8.86802
1145.43	19.2308
1148.32	26.0207
1151.21	5.41946
1154.1	1.25819
1157	0.154139
1159.89	3.05416
1162.78	32.2819
1165.67	34.8743
1168.57	28.4145
1171.46	40.1909
1174.35	41.1666
1177.24	32.2549
1180.14	15.3428
1183.03	19.0296
1185.92	23.2546
1188.82	42.689
1191.71	37.3015
1194.6	29.3289
1197.49	30.7864
1200.39	26.4109
1203.28	19.4587
1206.17	16.8138
1209.07	31.4698
1211.96	28.5929
1214.85	39.8049
1217.74	5.72017
1220.64	18.7394
1223.53	14.6581
1226.42	29.2427
1229.31	4.09068
1232.21	14.7228
1235.1	7.24707
1237.99	2.46528
1240.88	4.9565
1243.78	1.39889
1246.67	12.5145
1249.56	24.5832
1252.45	7.72067
1255.35	2.28175
1258.24	37.1944
1261.13	49.005
1264.03	40.7433
1266.92	21.8356
1269.81	42.9015
1272.7	36.2037
1275.6	62.1922
1278.49	24.0896
1281.38	6.05908
1284.28	23.4797
1287.17	19.8708
1290.06	34.5597
1292.95	2.33604
1295.85	29.5508
1298.74	16.5727
1301.63	2.4087
