Measurement: Raman, 532 nm, unoriented, Raman Data Processed
Mineral: Spertiniite
Rruff sample: R100193
Ideal chemistry: Cu^2+^(OH)_2_
Locality: Jeffrey mine, Asbestos, Shipton Township, Richmond County, Quebec, Canada
Source: Rob Lavinsky
Description: Blue botryoidal aggregates forming coatings on the rock. Sample is from F. Spertini
Raman shift (cm-1)	intensity
176.852	0
179.745	3.51041
182.637	4.59169
185.53	7.29385
188.423	1.9473
191.315	6.92983
194.208	7.26787
197.101	5.59065
199.994	5.04164
202.886	6.04414
205.779	8.77843
208.672	8.84773
211.565	8.65049
214.457	10.0283
217.35	8.93829
220.243	9.22807
223.135	7.89214
226.028	5.50229
228.921	8.50851
231.813	4.85418
234.706	4.98748
237.599	5.07379
240.492	1.75529
243.384	3.2754
246.277	0.56926
249.17	1.26976
252.062	2.85822
254.955	2.82874
257.848	0.372581
260.74	4.66848
263.633	0.13736
266.526	3.71265
269.418	5.95078
272.311	7.34362
275.204	9.63731
278.097	13.6687
280.989	16.4059
283.882	18.5768
286.775	21.4816
289.667	19.4372
292.56	14.9877
295.453	9.73641
298.346	7.13853
301.238	2.17509
304.131	2.45364
307.024	2.93443
309.916	1.14816
312.809	1.84297
315.702	2.68732
318.594	2.01655
321.487	0.678406
324.38	2.12736
327.273	3.62989
330.165	4.91136
333.058	2.08485
335.951	0.230438
338.843	1.26222
341.736	2.02538
344.629	0.385612
347.522	0.968086
350.414	1.66108
353.307	0.819504
356.2	2.24477
359.092	2.75176
361.985	3.73682
364.878	3.08285
367.77	5.03391
370.663	7.87904
373.556	11.1865
376.449	8.58415
379.341	12.5937
382.234	12.0881
385.127	9.30914
388.019	6.13408
390.912	3.16758
393.805	6.33884
396.697	3.01269
399.59	0.942284
402.483	0.604385
405.376	2.93074
408.268	4.55822
411.161	2.63677
414.054	0.999046
416.946	4.06559
419.839	4.17393
422.732	3.13751
425.625	5.19704
428.517	2.81894
431.41	5.45187
434.303	7.08
437.195	7.10737
440.088	9.06754
442.981	15.5358
445.873	9.40298
448.766	10.4118
451.659	12.3034
454.551	11.0137
457.444	10.036
460.337	13.729
463.23	11.717
466.122	13.4356
469.015	19.6047
471.908	25.0391
474.8	39.0465
477.693	51.6782
480.586	67.1275
483.479	82.5831
486.371	89.5024
489.264	92.3185
492.157	69.4322
495.049	46.4626
497.942	33.9507
500.835	20.9641
503.728	12.4233
506.62	11.6899
509.513	11.4753
512.406	9.61359
515.298	6.63061
518.191	1.0873
521.084	4.06831
523.976	4.49751
526.869	3.24609
529.762	2.44586
532.654	0.978302
535.547	0.597969
538.44	2.15613
541.333	1.77822
544.225	0.895706
547.118	1.21979
550.011	0.102158
552.903	2.97622
555.796	0.946686
558.689	0.405655
561.582	1.67475
564.474	2.35043
567.367	1.15925
570.26	1.26611
573.152	1.70754
576.045	3.68529
578.938	6.38374
581.83	1.01872
584.723	1.48536
587.616	2.73481
590.509	0.359299
593.401	1.99725
596.294	0.009857
599.187	2.21665
602.079	2.10317
604.972	3.90857
607.865	2.44121
610.758	0.847168
613.65	5.81012
616.543	1.38314
619.436	4.78262
622.328	1.92949
625.221	0.743179
628.114	3.83614
631.006	4.04331
633.899	0.070572
636.792	2.11958
639.684	1.71761
642.577	3.32909
645.47	2.40125
648.363	0.132416
651.255	2.67343
654.148	2.18005
657.041	0.301491
659.933	3.74818
662.826	2.5493
665.719	3.78917
668.612	1.37003
671.504	4.26543
674.397	1.74454
677.29	3.8643
680.182	2.8511
683.075	3.37962
685.968	3.48305
688.861	5.2811
691.753	7.92748
694.646	3.09155
697.539	3.40866
700.431	1.23869
703.324	4.0041
706.217	3.11875
709.109	2.98862
712.002	2.65859
714.895	3.54776
717.788	2.47924
720.68	1.92413
723.573	3.66859
726.466	1.54327
729.358	3.27836
732.251	3.73583
735.144	2.85636
738.036	1.11803
740.929	2.87523
743.822	2.12189
746.715	4.18692
749.607	4.29115
752.5	0.466286
755.393	0.764
758.285	3.09499
761.178	2.88735
764.071	5.3911
766.963	3.69953
769.856	3.33248
772.749	0.186951
775.642	4.51301
778.534	2.64457
781.427	1.48245
784.32	1.26126
787.212	3.88243
790.105	1.74244
792.998	4.24624
795.89	1.00233
798.783	1.84218
801.676	2.90202
804.569	3.98326
807.461	3.21562
810.354	1.74947
813.247	1.37405
816.139	0.184624
819.032	2.47521
821.925	0.087303
824.818	1.55026
827.71	2.15852
830.603	0.69796
833.496	2.16702
836.388	0.294319
839.281	1.80959
842.174	6.86398
845.067	2.16192
847.959	1.47083
850.852	4.56053
853.745	3.72784
856.637	2.67322
859.53	2.79463
862.423	2.86376
865.315	2.61834
868.208	3.09797
871.101	4.77187
873.994	3.14526
876.886	4.60052
879.779	3.90352
882.672	2.86992
885.564	3.26349
888.457	1.29188
891.35	3.50339
894.242	1.39725
897.135	1.23253
900.028	1.40032
902.92	1.07841
905.813	2.50238
908.706	1.17774
911.599	3.78263
914.491	3.00911
917.384	5.73333
920.277	2.30743
923.169	4.01852
926.062	4.24842
928.955	2.076
931.847	3.72237
934.74	1.33543
937.633	0.842407
940.526	5.49513
943.418	5.36475
946.311	4.09869
949.204	6.14304
952.096	3.81881
954.989	2.90451
957.882	5.26465
960.775	5.6922
963.667	6.18295
966.56	4.6525
969.453	3.27557
972.345	2.17975
975.238	2.46255
978.131	3.45146
981.024	0.782135
983.916	2.99683
986.809	2.71445
989.702	0.186539
992.594	2.88954
995.487	3.52779
998.38	0.353401
1001.27	4.98402
1004.16	1.5516
1007.06	2.28285
1009.95	0.386131
1012.84	3.69177
1015.74	2.79189
1018.63	2.55637
1021.52	2.75616
1024.41	4.12065
1027.31	2.145
1030.2	1.48093
1033.09	3.3158
1035.98	2.18181
1038.88	3.76843
1041.77	3.84413
1044.66	3.22184
1047.56	0.791405
1050.45	3.52807
1053.34	1.78519
1056.23	1.97707
1059.13	3.13606
1062.02	0.130562
1064.91	4.01197
1067.81	1.1706
1070.7	0.773254
1073.59	3.68636
1076.48	3.07982
1079.38	3.49851
1082.27	3.26645
1085.16	1.76357
1088.05	2.7253
1090.95	1.05233
1093.84	2.96129
1096.73	2.4725
1099.62	2.21156
1102.52	2.39859
1105.41	3.00526
1108.3	2.78654
1111.19	0.259949
1114.09	4.00719
1116.98	0.206223
1119.87	2.62315
1122.77	2.48553
1125.66	2.32246
1128.55	2.57761
1131.44	3.05315
1134.34	0.593018
1137.23	0.448547
1140.12	3.06153
1143.02	3.72605
1145.91	2.65788
1148.8	3.07079
1151.69	4.42887
1154.59	3.10175
1157.48	0.349983
1160.37	4.73381
1163.26	1.84007
1166.16	3.25826
1169.05	0.933334
1171.94	2.30814
1174.84	3.14752
1177.73	2.53179
1180.62	1.72047
1183.51	3.12044
1186.4	4.09716
1189.3	0.914215
1192.19	2.08046
1195.08	2.5067
1197.98	2.16717
1200.87	1.67171
1203.76	1.72771
1206.65	0.409348
1209.55	3.09228
1212.44	3.91666
1215.33	4.48188
1218.22	1.6924
1221.12	2.63983
1224.01	4.49342
1226.9	0.565819
1229.8	2.72723
1232.69	3.11748
1235.58	3.13112
1238.47	1.13871
1241.37	1.89206
1244.26	0.615685
1247.15	2.89813
1250.05	1.74957
1252.94	3.22439
1255.83	1.90742
1258.72	2.7452
1261.62	4.34967
1264.51	0.181969
1267.4	2.48089
1270.29	1.0405
1273.19	5.19828
1276.08	1.17693
1278.97	1.08338
1281.87	0.544491
1284.76	2.45334
1287.65	3.05027
1290.54	0.103779
1293.43	0.121914
1296.33	3.15171
1299.22	0.232307
1302.11	0.678329
