Measurement: Raman, 532 nm, unoriented, Raman Data Processed
Mineral: Sphalerite
Rruff sample: R060636
Ideal chemistry: Zn^2+^S^2-^
Locality: unknown
Source: Gemological Institute of America
Description: Light yellow-green cleavage fragment
Measured chemistry: Zn_1.00_S_1.00_
Raman shift (cm-1)	intensity
144.67	0
147.562	372.491
150.455	899.984
153.348	2372.78
156.24	680.283
159.133	164.046
162.026	114.739
164.919	268.479
167.811	759.275
170.704	1213.98
173.597	1570.03
176.489	1927.46
179.382	1853.02
182.275	1132.32
185.167	825.9
188.06	816.09
190.953	825.231
193.846	850.979
196.738	878.328
199.631	914.965
202.524	1086.82
205.416	1422.07
208.309	1916.02
211.202	2701.26
214.094	3681.75
216.987	4443.66
219.88	4026.69
222.773	3029.21
225.665	2352.96
228.558	1972.6
231.451	1852.33
234.343	1994.03
237.236	1911.98
240.129	1248.39
243.021	597.82
245.914	344.38
248.807	221.824
251.699	164.208
254.592	114.684
257.485	110.107
260.378	138.563
263.27	167.966
266.163	188.78
269.056	121.194
271.948	30.552
274.841	88.551
277.734	149.84
280.626	111.861
283.519	80.048
286.412	46.698
289.305	10.891
292.197	74.561
295.09	198.801
297.983	318.27
300.875	335.043
303.768	255.276
306.661	229.186
309.553	241.537
312.446	242.675
315.339	96.831
318.232	25.733
321.124	31.506
324.017	90.293
326.91	221.829
329.802	379.022
332.695	416.578
335.588	298.716
338.48	258.585
341.373	257.681
344.266	373.797
347.159	547.351
350.051	766.263
352.944	606.759
355.837	650.065
358.729	785.333
361.622	918.168
364.515	1079.39
367.408	1226.75
370.3	1339.41
373.193	1437.12
376.086	1571.45
378.978	1626.18
381.871	1753.57
384.764	1779.49
387.656	1970.1
390.549	2176.48
393.442	2422.34
396.335	2673.34
399.227	2576.35
402.12	2259.28
405.013	1969.21
407.905	1783.58
410.798	1828.33
413.691	2049.47
416.583	2621.14
419.476	3108.11
422.369	2924.49
425.262	2605.4
428.154	2353.06
431.047	2004.07
433.94	1599.76
436.832	1369.57
439.725	1368.38
442.618	1418.26
445.51	1455.55
448.403	1490.97
451.296	1416.07
454.189	950.392
457.081	261.537
459.974	3.773
462.867	57.809
465.759	64.48
468.652	64.128
471.545	54.493
474.437	24.354
477.33	6.877
480.223	11.792
483.116	45.854
486.008	62.269
488.901	74.375
491.794	114.881
494.686	116.188
497.579	148.251
500.472	170.544
503.364	182.997
506.257	221.314
509.15	287.823
512.042	321.955
514.935	385.737
517.828	420.577
520.721	394.04
523.613	306.161
526.506	218.976
529.399	136.627
532.291	78.799
535.184	26.222
538.077	6.053
540.969	0.027
543.862	7.238
546.755	10.615
549.648	10.58
552.54	5.771
555.433	1.104
558.326	0.684
561.218	21.922
564.111	24.477
567.004	9.791
569.896	3.652
572.789	28.346
575.682	33.775
578.575	36.084
581.467	66.233
584.36	104.124
587.253	108.683
590.145	151.725
593.038	209.658
595.931	268.254
598.823	355.903
601.716	500.439
604.609	665.228
607.502	844.564
610.394	941.53
613.287	1021.02
616.18	1024.4
619.072	807.707
621.965	405.559
624.858	251.321
627.75	358.488
630.643	581.021
633.536	911.898
636.429	1336.13
639.321	1401.61
642.214	1119.59
645.107	628.441
647.999	182.694
650.892	94.511
653.785	187.029
656.677	382.143
659.57	651.26
662.463	1109.54
665.356	1722.43
668.248	2436.33
671.141	2404.4
674.034	1684.12
676.926	1314.12
679.819	1116.34
682.712	962.955
685.604	841.074
688.497	739.142
691.39	646.64
694.283	524.146
697.175	367.51
700.068	189.597
702.961	75.562
705.853	42.711
708.746	19.931
711.639	6.533
714.531	2.537
717.424	0.833
720.317	5.117
723.21	7.095
726.102	2.465
728.995	22.269
731.888	2.177
734.78	0.084
737.673	1.553
740.566	3.774
743.458	1.479
746.351	1.633
749.244	19.296
752.137	17.483
755.029	15.934
757.922	14.915
760.815	32.187
763.707	27.267
766.6	24.54
769.493	23.911
772.385	21.661
775.278	35.854
778.171	25.938
781.064	19.406
783.956	28.702
786.849	24.449
789.742	38.396
792.634	23.771
795.527	40.478
798.42	25.489
801.312	18.666
804.205	22.508
807.098	2.021
809.991	25.681
812.883	24.798
815.776	10.428
818.669	19.772
821.561	7.81
824.454	25.034
827.347	24.933
830.24	22.764
833.132	17.4
836.025	40.265
838.917	14.126
841.81	17.7
844.703	5.641
847.596	8.697
850.488	15.477
853.381	1.04
856.274	17.046
859.166	14.004
862.059	7.276
864.952	7.879
867.844	9.823
870.737	23.948
873.63	9.872
876.523	13.648
879.415	19.739
882.308	15.522
885.201	5.215
888.093	12.916
890.986	13.123
893.879	6.283
896.771	16.368
899.664	27.789
902.557	6.92
905.45	25.918
908.342	21.604
911.235	37.274
914.128	24.196
917.02	27.717
919.913	25.037
922.806	28.772
925.698	15.13
928.591	10.066
931.484	22.105
934.377	21.133
937.269	32.243
940.162	25.943
943.055	0.085
945.947	17.496
948.84	17.353
951.733	27.202
954.625	27.324
957.518	25.616
960.411	9.108
963.304	10.551
966.196	11.262
969.089	3.497
971.982	6.588
974.875	10.451
977.767	10.774
980.66	7.702
983.553	10.243
986.445	7.363
989.338	14.9
992.231	30.123
995.123	2.527
998.016	18.577
1000.91	13.832
1003.8	24.74
1006.69	12.236
1009.59	10.12
1012.48	3.625
1015.37	15.669
1018.26	12.576
1021.16	4.983
1024.05	16.274
1026.94	10.982
1029.84	16.733
1032.73	27.632
1035.62	4.987
1038.51	4.232
1041.41	9.384
1044.3	6.368
1047.19	12.328
1050.09	7.72
1052.98	26.099
1055.87	4.374
1058.76	25.015
1061.66	2.108
1064.55	25.25
1067.44	24.709
1070.33	17.69
1073.23	15.729
1076.12	7.112
1079.01	25.073
1081.9	22.686
1084.8	3.952
1087.69	6.591
1090.58	28.478
1093.47	20.246
1096.37	6.896
1099.26	31.301
1102.15	24.583
1105.05	20.198
1107.94	28.997
1110.83	30.36
1113.72	26.561
1116.62	15.595
1119.51	18.675
1122.4	7.256
1125.3	19.541
1128.19	21.059
1131.08	19.238
1133.97	7.127
1136.87	28.021
1139.76	19.518
1142.65	7.946
1145.54	13.417
1148.44	14.902
1151.33	29.052
1154.22	1.663
1157.12	6.52
1160.01	13.08
1162.9	13.285
1165.79	18.997
1168.68	10.124
1171.58	16.319
1174.47	21.883
1177.36	25.446
1180.26	23.608
1183.15	16.054
1186.04	0.412
1188.93	16.605
1191.83	17.68
1194.72	4.027
1197.61	17.475
1200.51	11.93
1203.4	12.478
1206.29	14.875
1209.18	22.582
1212.08	25.571
1214.97	37.161
1217.86	42.571
1220.75	25.355
1223.65	11.492
1226.54	36.552
1229.43	18.986
1232.33	33.782
1235.22	11.945
1238.11	20.513
1241	32.703
1243.9	22.222
1246.79	32.275
1249.68	13.157
1252.57	21.103
1255.47	18.833
1258.36	0
