Measurement: Raman, 780 nm, unoriented, Raman Data Processed
Mineral: Sphalerite
Rruff sample: R060636
Ideal chemistry: Zn^2+^S^2-^
Locality: unknown
Source: Gemological Institute of America
Description: Light yellow-green cleavage fragment
Measured chemistry: Zn_1.00_S_1.00_
Raman shift (cm-1)	intensity
93.9705	0
97.3453	6.17596
100.72	28.7451
104.095	26.139
107.47	47.6412
110.845	21.2349
114.219	4.54828
117.594	1.99152
120.969	8.24304
124.344	7.3125
127.719	7.30756
131.094	37.1696
134.468	56.1442
137.843	98.6111
141.218	151.6
144.593	155.258
147.968	163.005
151.342	167.429
154.717	185.746
158.092	204.997
161.467	227.082
164.842	249.116
168.216	276.386
171.591	306.264
174.966	338.334
178.341	370.917
181.716	336.156
185.09	266.228
188.465	236.128
191.84	231.006
195.215	237.328
198.59	240.484
201.965	261.38
205.339	293.092
208.714	354.24
212.089	435.42
215.464	529.421
218.839	568.746
222.214	477.813
225.588	362.201
228.963	296.987
232.338	267.35
235.713	259.616
239.088	221.401
242.462	134.977
245.837	78.2362
249.212	53.4156
252.587	37.2753
255.962	28.0619
259.336	24.4173
262.711	23.4838
266.086	21.3735
269.461	12.121
272.836	0.732925
276.211	9.62418
279.585	12.3362
282.96	9.84557
286.335	7.42792
289.71	2.56741
293.085	6.29686
296.459	17.4241
299.834	24.4442
303.209	22.0042
306.584	12.8646
309.959	10.5978
313.334	10.6049
316.708	0.18277
320.083	5.33783
323.458	0.364777
326.833	12.6924
330.207	38.2372
333.582	78.6166
336.957	91.6341
340.332	127.63
343.707	213.11
347.082	416.524
350.456	778.792
353.831	444.497
357.206	186.642
360.581	150.396
363.956	148.761
367.33	158.489
370.705	168.981
374.08	177.074
377.455	182.165
380.83	193.824
384.205	208.441
387.579	220.816
390.954	242.349
394.329	259.74
397.704	268.976
401.079	255.853
404.453	217.948
407.828	200.051
411.203	199.166
414.578	221.018
417.953	266.654
421.327	296.207
424.702	271.353
428.077	241.275
431.452	207.661
434.827	169.138
438.202	144.857
441.576	143.347
444.951	144.839
448.326	143.933
451.701	129.842
455.076	83.6596
458.45	20.3153
461.825	4.6034
465.2	7.39896
468.575	7.6468
471.95	5.01498
475.325	2.79279
478.699	0.285202
482.074	3.93438
485.449	7.66718
488.824	10.4936
492.199	14.931
495.573	17.5289
498.948	19.3576
502.323	23.2295
505.698	26.7904
509.073	30.9635
512.447	37.1998
515.822	41.7062
519.197	43.7418
522.572	37.5039
525.947	26.0159
529.322	14.8639
532.696	7.59026
536.071	3.42623
539.446	0.434921
542.821	0.989006
546.196	0.861633
549.57	0.823486
552.945	0.295639
556.32	0.047577
559.695	0.217087
563.07	0.194817
566.444	0.688049
569.819	1.57649
573.194	2.35601
576.569	3.92847
579.944	6.20357
583.319	8.33091
586.693	12.0273
590.068	15.8571
593.443	23.8179
596.818	32.9711
600.193	46.0758
603.567	62.3417
606.942	80.3499
610.317	92.6179
613.692	93.6732
617.067	93.3265
620.442	67.5135
623.816	37.0152
627.191	35.5742
630.566	51.3949
633.941	76.6856
637.316	106.839
640.69	106.773
644.065	74.7153
647.44	31.8226
650.815	15.9978
654.19	31.4938
657.564	59.7138
660.939	95.1021
664.314	147.251
667.689	210.241
671.064	234.184
674.439	172.013
677.813	125.621
681.188	105.066
684.563	89.6592
687.938	76.804
691.313	63.3549
694.688	49.0302
698.062	31.4
701.437	15.1282
704.812	5.92969
708.187	1.46378
711.562	0.836136
714.936	0.480125
718.311	0.730034
721.686	0.975349
725.061	1.36142
728.436	0.68734
731.81	0.810173
735.185	0.859024
738.56	0.025352
741.935	0.354393
745.31	0.087799
748.684	0.928391
752.059	1.41995
755.434	2.30503
758.809	2.36496
762.184	2.48885
765.559	3.09985
768.933	6.1777
772.308	4.54568
775.683	4.87036
779.058	4.60389
782.433	5.24802
785.808	3.64885
789.182	4.69221
792.557	5.29919
795.932	4.40754
799.307	4.47144
802.682	4.00304
806.056	4.44609
809.431	5.75108
812.806	5.08014
816.181	5.15008
819.556	5.32665
822.93	5.10021
826.305	5.85157
829.68	5.34284
833.055	7.17111
836.43	6.76536
839.804	6.77799
843.179	5.78525
846.554	6.42375
849.929	6.9662
853.304	6.74959
856.679	7.10597
860.053	5.45502
863.428	6.39538
866.803	5.81703
870.178	6.09486
873.553	5.58659
876.927	4.78603
880.302	3.60789
883.677	3.29396
887.052	2.6943
890.427	2.89154
893.802	1.77942
897.176	0.980663
900.551	0.384632
903.926	0.507919
907.301	0.572605
910.676	1.13355
914.05	0.227787
917.425	0.007847
920.8	0.215931
924.175	0.679199
927.55	0.209682
930.924	0.090336
934.299	0.758442
937.674	0.427963
941.049	0.296253
944.424	0.389088
947.799	0.382713
951.173	0.276123
954.548	0.921444
957.923	0.028069
961.298	0.116932
964.673	0.114609
968.047	0.3353
971.422	0.130356
974.797	0.769268
978.172	0.334652
981.547	0.336327
984.922	0.872536
988.296	1.2061
991.671	0.201416
995.046	0.86264
998.421	1.39294
1001.8	1.66189
1005.17	1.46027
1008.54	1.82082
1011.92	1.88431
1015.29	2.00744
1018.67	2.1647
1022.04	2.26119
1025.42	1.9249
1028.79	2.15601
1032.17	2.93625
1035.54	2.15286
1038.92	2.84943
1042.29	2.47377
1045.67	1.64019
1049.04	1.6064
1052.42	1.83659
1055.79	1.87952
1059.17	2.02763
1062.54	1.39246
1065.92	0.914024
1069.29	1.61902
1072.67	1.97702
1076.04	3.18012
1079.42	1.16343
1082.79	1.27578
1086.17	1.30929
1089.54	1.20139
1092.92	0.014915
1096.29	0.214779
1099.66	0.596191
1103.04	2.78116
1106.41	1.27567
1109.79	1.15974
1113.16	0.561012
1116.54	0.261242
1119.91	0.118835
1123.29	0.550186
1126.66	0.047276
1130.04	0.014347
1133.41	0.601444
1136.79	0.258965
1140.16	0.394955
1143.54	0.036152
1146.91	0.43428
1150.29	0.437836
1153.66	0.89225
1157.04	1.11281
1160.41	0.600086
1163.79	0.927055
1167.16	0.587387
1170.54	1.0752
1173.91	1.19988
1177.29	0.669048
1180.66	0.794987
1184.04	0.245872
1187.41	1.31356
1190.79	0.674568
1194.16	0.945721
1197.54	0.739643
1200.91	0.815968
1204.28	1.17096
1207.66	1.08243
1211.03	0.896763
1214.41	0.67247
1217.78	1.04146
1221.16	0.837021
1224.53	0.486027
1227.91	0.095192
1231.28	0.492508
1234.66	0.97921
1238.03	0.467491
1241.41	1.34069
1244.78	0.507111
1248.16	0.168217
1251.53	0.615997
1254.91	0.465519
1258.28	0.711842
1261.66	1.0223
1265.03	0.924538
1268.41	0.965275
1271.78	1.18311
1275.16	1.33545
1278.53	0.60413
1281.9	0.777405
