Measurement: Raman, 532 nm, unoriented, Raman Data Processed
Mineral: Sphalerite
Rruff sample: R050005
Ideal chemistry: Zn^2+^S^2-^
Locality: Taolin mine, Yueyang, Linxing, Hunan Province, China
Source: Eugene Schlepp
Description: Reddish brown crystals
Measured chemistry: (Zn_.997_Fe_.003_)S
Raman shift (cm-1)	intensity
136.163	0
139.537	59.4065
142.912	83.6514
146.287	130.351
149.662	358.879
153.037	703.569
156.411	933.24
159.786	1097.59
163.161	1335.66
166.536	1572.57
169.911	1912.07
173.286	2254
176.66	2466.44
180.035	2269.44
183.41	1817.91
186.785	1416.83
190.16	1249.44
193.535	1175.12
196.909	1168.43
200.284	1366.87
203.659	1647.7
207.034	2026.61
210.409	2698.39
213.783	3423.54
217.158	3708.05
220.533	3005.95
223.908	2165.69
227.283	1655.94
230.657	1376.92
234.032	1297.05
237.407	1081.74
240.782	448.323
244.157	194.561
247.532	96.3096
250.906	46.2321
254.281	33.9156
257.656	39.5714
261.031	90.6055
264.406	181.95
267.781	539.467
271.155	1091.49
274.53	1153.31
277.905	913.807
281.28	845.671
284.655	1162.55
288.029	1726.47
291.404	2579.9
294.779	3789.94
298.154	4763.52
301.529	4748.41
304.904	3904.86
308.278	3139.13
311.653	2202.07
315.028	1157.38
318.403	343.591
321.778	1202.95
325.152	3926.13
328.527	7250.66
331.902	9999.45
335.277	10888.8
338.652	9375.29
342.026	5279.73
345.401	2435.67
348.776	2063.28
352.151	2246.51
355.526	2006.25
358.901	2060.16
362.275	3475.64
365.65	3850.63
369.025	1628.41
372.4	1248.67
375.775	1018.11
379.149	683.67
382.524	708.187
385.899	399.967
389.274	53.1948
392.649	269.589
396.024	468.858
399.398	448.693
402.773	291.137
406.148	377.943
409.523	549.38
412.898	910.734
416.272	1431.08
419.647	1664.1
423.022	1484.67
426.397	1235.87
429.772	1022.13
433.147	682.667
436.521	575.44
439.896	676.523
443.271	802.278
446.646	834.652
450.021	737.675
453.396	311.937
456.77	106.054
460.145	50.8077
463.52	10.4455
466.895	23.8129
470.27	47.5945
473.644	113.249
477.019	171.901
480.394	266.822
483.769	364.269
487.144	417.767
490.519	506.85
493.893	558.151
497.268	596.085
500.643	671.756
504.018	721.7
507.393	802.982
510.767	837.251
514.142	870.245
517.517	789.406
520.892	590.007
524.267	457.574
527.641	250.172
531.016	204.231
534.391	148.013
537.766	57.8398
541.141	52.9104
544.516	22.2502
547.89	10.6257
551.265	24.8418
554.64	9.47412
558.015	18.8728
561.39	47.3711
564.764	21.3303
568.139	23.7637
571.514	33.4192
574.889	38.0669
578.264	78.0117
581.639	85.6228
585.013	147.239
588.388	293.577
591.763	382.121
595.138	559.831
598.513	724.322
601.888	953.886
605.262	1184.24
608.637	1331.55
612.012	1383.21
615.387	1337.68
618.762	1071.97
622.136	939.776
625.511	1120.09
628.886	1538.78
632.261	1876.79
635.636	2183.49
639.01	2143.87
642.385	1810.43
645.76	1311.48
649.135	1280.51
652.51	1455.09
655.885	1926.52
659.259	2682.47
662.634	3477.5
666.009	4139.81
669.384	4151.16
672.759	3484.69
676.134	2937.5
679.508	2548.72
682.883	2208.16
686.258	1915.86
689.633	1672.81
693.008	1504.49
696.382	1231.19
699.757	991.122
703.132	693.53
706.507	550.484
709.882	336.515
713.256	278.424
716.631	133.347
720.006	112.95
723.381	18.1003
726.756	19.4898
730.131	27.9002
733.505	6.13061
736.88	50.7959
740.255	0.925293
743.63	54.5832
747.005	22.6909
750.38	4.94995
753.754	43.5105
757.129	32.2893
760.504	11.5857
763.879	35.1809
767.254	38.3699
770.628	55.8083
774.003	49.4182
777.378	40.7808
780.753	129.655
784.128	76.124
787.503	126.558
790.877	117.941
794.252	160.791
797.627	131.654
801.002	165.172
804.377	115.905
807.751	151.165
811.126	147.155
814.501	154.374
817.876	157.944
821.251	148.196
824.625	128.943
828	137.278
831.375	173.304
834.75	130.655
838.125	184.001
841.5	117.367
844.874	111.35
848.249	78.4839
851.624	99.5999
854.999	107.434
858.374	93.083
861.749	27.5215
865.123	33.9932
868.498	16.4856
871.873	45.6111
875.248	6.57886
878.623	7.87744
881.997	8.46143
885.372	9.48926
888.747	10.4077
892.122	19.4209
895.497	7.7251
898.871	9.96338
902.246	72.6963
905.621	16.7102
908.996	14.8013
912.371	55.6167
915.746	53.1665
919.12	74.1882
922.495	57.3196
925.87	13.7332
929.245	121.877
932.62	81.0029
935.995	88.2129
939.369	132.715
942.744	138.918
946.119	143.721
949.494	173.786
952.869	163.647
956.243	205.232
959.618	239.595
962.993	261.462
966.368	317.929
969.743	291.637
973.117	281.224
976.492	365.614
979.867	355.275
983.242	382.115
986.617	387.938
989.992	368.394
993.366	387.97
996.741	382.244
1000.12	457.203
1003.49	475.983
1006.87	444.922
1010.24	438.93
1013.62	416.845
1016.99	359.136
1020.37	330.411
1023.74	264.729
1027.12	282.93
1030.49	279.685
1033.86	298.223
1037.24	207.239
1040.61	184.658
1043.99	131.865
1047.36	117.022
1050.74	87.7964
1054.11	67.147
1057.49	39.1604
1060.86	62.614
1064.24	48.0317
1067.61	56.8743
1070.99	6.76587
1074.36	3.50293
1077.74	41.804
1081.11	12.5713
1084.49	15.3918
1087.86	17.3618
1091.24	3.302
1094.61	0.811279
1097.99	30.3994
1101.36	32.6238
1104.73	14.6479
1108.11	18.5032
1111.48	15.2217
1114.86	24.6731
1118.23	0.029053
1121.61	80.3735
1124.98	29.053
1128.36	42.8018
1131.73	79.1062
1135.11	34.7407
1138.48	86.0139
1141.86	7.85547
1145.23	39.0444
1148.61	72.9431
1151.98	14.1606
1155.36	44.156
1158.73	65.0991
1162.11	42.1755
1165.48	45.1094
1168.86	38.7153
1172.23	75.8423
1175.61	58.3066
1178.98	52.1392
1182.36	44.9228
1185.73	32.5137
1189.11	35.8809
1192.48	40.2183
1195.86	39.0298
1199.23	50.9497
1202.61	8.81592
1205.98	17.209
1209.36	14.9458
1212.73	40.6899
1216.1	24.5234
1219.48	62.3159
1222.85	9.8623
1226.23	20.9507
1229.6	42.9019
1232.98	13.7871
1236.35	11.8677
1239.73	44.8306
1243.1	48.2031
1246.48	41.5776
1249.85	16.0654
1253.23	31.8916
1256.6	54.8359
1259.98	46.5591
1263.35	20.2695
1266.73	60.3418
1270.1	23
1273.48	92.4316
1276.85	50.9512
1280.23	44.2207
1283.6	80.7095
1286.98	40.1011
1290.35	66.3892
1293.72	7.10938
1297.1	13.71
1300.47	47.5625
1303.85	110.869
