Measurement: Raman, 514 nm, unoriented, Raman Data Processed
Mineral: Sphalerite
Rruff sample: R050005
Ideal chemistry: Zn^2+^S^2-^
Locality: Taolin mine, Yueyang, Linxing, Hunan Province, China
Source: Eugene Schlepp
Description: Reddish brown crystals
Measured chemistry: (Zn_.997_Fe_.003_)S
Raman shift (cm-1)	intensity
103.124	0
107.3	173.826
111.473	602.525
115.644	678.618
119.813	360.097
123.981	360.688
128.146	702.405
132.309	1308.53
136.47	2229.4
140.63	3991.29
144.787	4205.15
148.942	3623.87
153.096	3395.66
157.247	3564.94
161.396	3804.67
165.544	4236.32
169.689	4569.44
173.833	5433.62
177.974	6303.48
182.114	5358.44
186.251	4568.36
190.387	4137.89
194.52	3919.72
198.652	3536.18
202.782	3585.98
206.909	4400.09
211.035	5607.55
215.159	7562.9
219.281	7913.44
223.4	5663.6
227.518	4442.63
231.634	3658.35
235.748	3551.71
239.86	2153.97
243.97	714.549
248.079	268.592
252.185	35.273
256.289	252.543
260.391	180.377
264.492	51.48
268.59	697.832
272.687	1559.59
276.781	1071.13
280.874	644.15
284.964	513.418
289.053	520.18
293.14	1307.91
297.225	2605.26
301.308	2967.31
305.389	1731.75
309.468	1009.55
313.545	509.488
317.62	157.711
321.693	27.842
325.765	913.432
329.834	2454.72
333.902	4289.56
337.967	4235.8
342.031	5733.97
346.093	17859
350.153	37043
354.21	11899.2
358.267	5547.51
362.321	4512.02
366.373	4644.69
370.423	3967.09
374.471	3906.42
378.518	3966.77
382.563	4041.53
386.605	4110.24
390.646	4513.38
394.685	5173.11
398.722	5127.55
402.757	4374.65
406.79	3898.31
410.821	3668.28
414.851	3661.68
418.878	4508.34
422.904	4517.8
426.927	4192.01
430.949	3507.63
434.969	2709.31
438.987	2354.05
443.003	2581.75
447.018	2709.41
451.03	2563.96
455.041	1397.33
459.049	239.488
463.056	58.686
467.061	153.303
471.064	242.633
475.065	66.988
479.064	17.4
483.062	8.609
487.057	152.527
491.051	12.045
495.043	41.818
499.032	75.447
503.02	237.898
507.007	331.244
510.991	417.484
514.973	444.703
518.954	668.771
522.933	423.375
526.91	70.521
530.885	6.07
534.858	50.883
538.829	208.896
542.799	36.074
546.766	21.898
550.732	86.898
554.696	13.932
558.658	116.4
562.618	241.453
566.576	89.74
570.533	393.342
574.488	348.955
578.44	422.127
582.391	500.4
586.341	592.08
590.288	1027.13
594.233	920.049
598.177	1585.69
602.119	1946.45
606.059	2434.5
609.997	2486.3
613.933	3000.44
617.868	2616.33
621.801	1592.17
625.731	1413.57
629.66	1732.01
633.588	2197.39
637.513	2641.56
641.437	2662.61
645.358	1418.75
649.278	1290.05
653.196	1071.7
657.113	1996.47
661.027	3100.39
664.94	4796.55
668.851	6311.58
672.76	5149.56
676.667	4032.61
680.572	3412.55
684.476	3122.47
688.378	2918.34
692.278	2701.66
696.176	2071.33
700.072	1337.8
703.967	680.553
707.86	646.904
711.751	726.672
715.64	358.115
719.527	420.34
723.413	367.828
727.297	33.623
731.179	321
735.059	295.076
738.937	301.361
742.814	187.914
746.689	79.035
750.562	270.707
754.433	108.934
758.303	108.266
762.17	0.01
766.036	47.725
769.901	102.039
773.763	29.945
777.624	382.449
781.482	103.508
785.339	102.418
789.195	169.707
793.048	135.922
796.9	43.664
800.75	2.438
804.598	242.352
808.445	85.996
812.289	163.188
816.132	42.055
819.973	62.367
823.813	116.949
827.65	117.73
831.486	122.043
835.32	71.09
839.152	264.676
842.983	374.246
846.812	428.707
850.639	193.133
854.464	75.969
858.288	545.707
862.11	233.406
865.93	184.543
869.748	5.141
873.564	442.484
877.379	332.746
881.192	343.18
885.004	444.074
888.813	289.242
892.621	346.625
896.427	360.762
900.232	356.906
904.034	588.18
907.835	577.719
911.634	361.77
915.432	379.516
919.227	450.707
923.021	524.551
926.813	615.113
930.604	595.828
934.393	565.746
938.18	579.641
941.965	585.82
945.749	633.336
949.53	749.613
953.311	461.766
957.089	619.793
960.866	385.57
964.641	530.504
968.414	441.953
972.185	348.082
975.955	554.355
979.723	342.172
983.49	542.141
987.254	486.152
991.017	770.492
994.779	804.766
998.538	781.578
1002.3	1103.11
1006.05	608.723
1009.81	694.609
1013.56	842.98
1017.31	842.738
1021.06	748.348
1024.81	611.484
1028.55	736.668
1032.3	905.5
1036.04	1144.18
1039.78	753.719
1043.52	784.539
1047.26	697.48
1050.99	854.328
1054.73	890.238
1058.46	824.336
1062.19	704.492
1065.92	888.41
1069.65	962.938
1073.37	779.441
1077.1	748.379
1080.82	978.535
1084.54	822.742
1088.26	726.219
1091.97	385.004
1095.69	313.289
1099.4	248.398
1103.12	371.742
1106.83	214.391
1110.54	85.438
1114.24	93.562
1117.95	193.383
1121.65	73.629
1125.35	271.48
1129.06	27.156
1132.75	157.391
1136.45	119.688
1140.15	95.52
1143.84	31.402
1147.53	194.715
1151.22	66.559
1154.91	148.684
1158.6	171.422
1162.28	217.684
1165.97	113.586
1169.65	325.137
1173.33	370.34
1177.01	260.367
1180.69	528.715
1184.36	661.668
1188.04	478.414
1191.71	381.418
1195.38	300.742
1199.05	760.672
1202.71	708.277
1206.38	842.508
1210.04	242.359
1213.71	563.984
1217.37	1306.28
1221.03	437.289
1224.68	585.043
1228.34	427
1231.99	506.551
1235.65	635.949
1239.3	580.688
1242.95	421.836
1246.59	379.238
1250.24	467.051
1253.88	559.887
1257.53	329.383
1261.17	543.328
1264.81	410.504
1268.45	331.246
1272.08	16.59
1275.72	264.293
