Measurement: Raman, 785 nm, unoriented, Raman Data Processed
Mineral: Sphalerite
Rruff sample: R050005
Ideal chemistry: Zn^2+^S^2-^
Locality: Taolin mine, Yueyang, Linxing, Hunan Province, China
Source: Eugene Schlepp
Description: Reddish brown crystals
Measured chemistry: (Zn_.997_Fe_.003_)S
Raman shift (cm-1)	intensity
127.769	0
130.662	1040.12
133.554	1323.51
136.447	477.484
139.34	71.6067
142.232	65.2708
145.125	1080.32
148.018	2492.79
150.911	2876.53
153.803	2290.8
156.696	1767.73
159.589	1973.35
162.481	2246.94
165.374	2652.41
168.267	2977.63
171.16	3369.86
174.052	3695.88
176.945	3967.43
179.838	3936.57
182.73	3411.43
185.623	2970.6
188.516	2878.64
191.408	2768.82
194.301	2710.07
197.194	2651.33
200.087	2693.18
202.979	2937.03
205.872	3311.09
208.765	3812.75
211.657	4527.12
214.55	5527.66
217.443	5997.11
220.335	5522.54
223.228	4563.98
226.121	3769.87
229.013	3237.93
231.906	2951.36
234.799	2899.02
237.692	2556.22
240.584	1746.16
243.477	1120.02
246.37	786.316
249.262	597.045
252.155	459.655
255.048	369.366
257.941	317.517
260.833	251.371
263.726	257.127
266.619	202.065
269.511	127.713
272.404	48.5179
275.297	37.7534
278.19	22.7541
281.082	15.1486
283.975	33.7315
286.868	202.058
289.76	535.373
292.653	814.907
295.546	1348.02
298.438	1867.62
301.331	1893.59
304.224	1383.77
307.116	1064.25
310.009	841.41
312.902	621.607
315.795	189.954
318.687	23.3596
321.58	35.1272
324.473	231.567
327.365	882.246
330.258	1641.71
333.151	2282.17
336.043	2154.3
338.936	1635.15
341.829	1254.69
344.721	1273.13
347.614	1798.24
350.507	2053.58
353.4	1266.18
356.292	1043.22
359.185	1049.37
362.078	1332.54
364.97	1505.73
367.863	1569.42
370.756	1608.8
373.649	1696.95
376.541	1761.03
379.434	1798.94
382.327	1894.71
385.219	2055.31
388.112	2214.47
391.005	2516.98
393.897	2765.05
396.79	2915.52
399.683	2839.89
402.575	2428.34
405.468	2186.9
408.361	2136.66
411.254	2311.85
414.146	2673.35
417.039	3270.76
419.932	3574.02
422.824	3311.95
425.717	2995.25
428.61	2622.49
431.502	2177.51
434.395	1808.71
437.288	1655.98
440.181	1645.59
443.073	1691.33
445.966	1752.58
448.859	1651.22
451.751	1327.21
454.644	726.211
457.537	172.052
460.43	94.0121
463.322	53.8762
466.215	10.8113
469.108	-10.3195
472	-5.92059
474.893	7.75195
477.786	29.0237
480.678	73.5317
483.571	108.986
486.464	123.136
489.356	186.267
492.249	210.377
495.142	231.291
498.035	287.334
500.927	313.044
503.82	340.875
506.713	407.699
509.605	493.512
512.498	518.37
515.391	593.122
518.284	558.593
521.176	522.067
524.069	366.997
526.962	250.752
529.854	154.628
532.747	92.7893
535.64	65.7117
538.533	53.3794
541.425	12.4854
544.318	46.8516
547.211	20.2305
550.103	13.8562
552.996	13.2173
555.889	31.3757
558.781	14.7336
561.674	14.5884
564.567	16.9517
567.459	7.44189
570.352	37.4067
573.245	12.6323
576.138	82.251
579.03	72.272
581.923	152.668
584.816	134.985
587.708	248.876
590.601	263.282
593.494	319.371
596.386	434.467
599.279	601.653
602.172	823.919
605.064	1063.85
607.957	1164.72
610.85	1247.04
613.743	1287.76
616.635	1138.33
619.528	798.679
622.421	576.17
625.313	587.051
628.206	779.325
631.099	1080.41
633.991	1454.33
636.884	1669.58
639.777	1533.83
642.67	1021.4
645.562	557.233
648.455	281.935
651.348	301.173
654.24	495.895
657.133	890.748
660.026	1451.03
662.918	2105.79
665.811	2835.31
668.704	3084.05
671.597	2626.2
674.489	2011.3
677.382	1686.54
680.275	1466.05
683.167	1235.24
686.06	1076.3
688.953	959.127
691.846	785.903
694.738	610.442
697.631	394.685
700.524	204.044
703.416	95.6304
706.309	41.1636
709.202	20.3294
712.094	12.6079
714.987	14.6882
717.88	17.4321
720.773	6.93237
723.665	2.94995
726.558	1.54761
729.451	29.9893
732.343	23.5989
735.236	18.6965
738.129	0.371582
741.021	10.3606
743.914	12.1482
746.807	14.7896
749.699	0.024658
752.592	44.6594
755.485	45.2334
758.378	33.3491
761.27	57.1741
764.163	29.4788
767.056	27.5237
769.948	29.9045
772.841	56.2148
775.734	33.7053
778.626	59.9382
781.519	82.3376
784.412	53.2148
787.305	81.6421
790.197	49.0652
793.09	50.2561
795.983	45.0869
798.875	36.3591
801.768	62.5698
804.661	46.6785
807.553	30.9165
810.446	47.3413
813.339	0.353027
816.232	21.676
819.124	50.8855
822.017	39.7275
824.91	36.1428
827.802	33.1431
830.695	13.166
833.588	55.7874
836.481	62.5127
839.373	19.0942
842.266	9.10864
845.159	27.4016
848.051	21.3105
850.944	18.6672
853.837	8.46313
856.729	50.9815
859.622	19.616
862.515	15.3608
865.408	41.489
868.3	46.7527
871.193	6.37427
874.086	25.5569
876.978	42.2815
879.871	24.8738
882.764	45.5832
885.656	37.6289
888.549	28.1135
891.442	46.9714
894.335	30.3774
897.227	38.0957
900.12	37.4067
903.013	21.7556
905.905	31.134
908.798	60.2095
911.691	22.0476
914.583	65.981
917.476	58.0525
920.369	7.89209
923.261	66.0127
926.154	48.8267
929.047	34.6882
931.94	43.1921
934.832	39.3865
937.725	44.1284
940.618	51.1367
943.51	39.8796
946.403	19.9521
949.296	36.1287
952.188	7.76221
955.081	13.2339
957.974	42.0789
960.867	13.179
963.759	0.210449
966.652	18.9238
969.545	39.3662
972.437	4.17773
975.33	62.3193
978.223	32.2456
981.115	30.6218
984.008	55.8684
986.901	46.5664
989.794	23.439
992.686	19.9238
995.579	26.0872
998.472	31.6995
1001.36	43.3306
1004.26	28.3887
1007.15	30.2129
1010.04	43.5913
1012.93	57.5688
1015.83	84.406
1018.72	16.3372
1021.61	42.2417
1024.51	36.2598
1027.4	26.4485
1030.29	43.1067
1033.18	59.2356
1036.08	48.8669
1038.97	31.0339
1041.86	32.3047
1044.76	17.2654
1047.65	25.2949
1050.54	8.4585
1053.43	41.1328
1056.33	53.0815
1059.22	31.844
1062.11	24.6272
1065	57.4878
1067.9	37.3726
1070.79	48.6448
1073.68	31.5217
1076.58	49.6907
1079.47	77.925
1082.36	52.6472
1085.25	43.2324
1088.14	12.3909
1091.04	67.2361
1093.93	27.6003
1096.82	62.2502
1099.72	43.3967
1102.61	53.239
1105.5	66.2749
1108.39	76.1692
1111.29	53.6992
1114.18	68.1228
1117.07	36.7349
1119.96	29.5386
1122.86	72.5344
1125.75	30.7219
1128.64	14.241
1131.54	32.4155
1134.43	17.2456
1137.32	70.9277
1140.21	36.626
1143.11	22.0771
1146	62.6292
1148.89	17.8919
1151.79	56.7803
1154.68	64.6045
1157.57	58.8415
1160.46	40.8682
1163.36	16.4873
1166.25	20.2388
1169.14	23.5708
1172.03	39.1704
1174.93	131.818
1177.82	14.0115
1180.71	43.3713
1183.6	3.00879
1186.5	1.16162
1189.39	41.0544
1192.28	30.6697
1195.17	81.8733
1198.07	29.2275
1200.96	53.7793
1203.85	70.8091
1206.75	35.1846
1209.64	11.5603
1212.53	19.4002
1215.42	54.5845
1218.32	27.6484
1221.21	84.0039
1224.1	20.0037
1226.99	5.55957
1229.89	40.1697
