Measurement: Raman, 780 nm, unoriented, Raman Data Processed
Mineral: Spinel
Rruff sample: R120116
Ideal chemistry: MgAl_2_O_4_
Locality: Bo Phloi, Kanfhoutabori Province,Thailand
Source: Mark N. Feinglos
Description: Black glassy fragment
Measured chemistry: (Mg_0.74_Fe^2+^_0.24_)_Σ=0.98_(Al_1.82_Fe^3+^_0.17_Ti^4+^_0.01_)_Σ=2.00_O_4_
Raman shift (cm-1)	intensity
101.324	0
104.699	3.18573
108.074	5.2298
111.448	6.1582
114.823	14.3683
118.198	24.304
121.573	34.289
124.948	40.7277
128.322	44.3859
131.697	49.2807
135.072	59.2997
138.447	64.2819
141.822	64.4619
145.197	72.9059
148.571	75.4172
151.946	77.9108
155.321	76.7622
158.696	76.4789
162.071	79.8986
165.446	78.3294
168.82	76.4437
172.195	76.0527
175.57	71.4357
178.945	72.8001
182.32	67.5224
185.694	63.3543
189.069	58.8289
192.444	49.7223
195.819	38.1587
199.194	31.6633
202.569	22.5317
205.943	14.3412
209.318	7.72192
212.693	0.676331
216.068	0.580994
219.442	1.35522
222.817	1.16437
226.192	3.59277
229.567	1.86548
232.942	0.636169
236.317	1.68436
239.691	2.17395
243.066	2.2933
246.441	4.33844
249.816	1.56061
253.191	2.02637
256.565	3.2337
259.94	3.242
263.315	6.4841
266.69	8.40402
270.065	11.9006
273.44	14.8366
276.814	15.4566
280.189	15.1331
283.564	17.8677
286.939	13.2749
290.314	14.3218
293.688	15.1902
297.063	18.3531
300.438	18.611
303.813	21.6384
307.188	19.8923
310.562	21.7192
313.937	22.5272
317.312	22.3767
320.687	21.1136
324.062	22.3258
327.437	21.8831
330.811	22.7276
334.186	21.1119
337.561	21.5233
340.936	19.1691
344.311	16.6816
347.685	12.997
351.06	13.3077
354.435	11.1882
357.81	11.1159
361.185	11.8741
364.56	6.19876
367.934	9.17566
371.309	5.38635
374.684	1.4957
378.059	3.29013
381.434	3.78693
384.808	2.95828
388.183	4.61261
391.558	5.073
394.933	7.43057
398.308	6.47031
401.683	4.38004
405.057	5.69043
408.432	2.22311
411.807	0.265778
415.182	0.731873
418.557	1.2034
421.931	0.726074
425.306	0.820801
428.681	2.05987
432.056	1.18692
435.431	0.664978
438.805	0.101379
442.18	3.96103
445.555	4.10025
448.93	2.18997
452.305	7.24216
455.68	6.01132
459.054	6.94763
462.429	8.34665
465.804	10.0413
469.179	13.3404
472.554	13.9558
475.928	13.6922
479.303	14.4544
482.678	15.2677
486.053	17.7742
489.428	20.4122
492.803	18.2481
496.177	24.4152
499.552	18.7861
502.927	21.0623
506.302	19.2909
509.677	23.1648
513.051	20.4699
516.426	26.325
519.801	23.918
523.176	23.9314
526.551	23.987
529.926	22.5423
533.3	20.7932
536.675	20.2714
540.05	18.8349
543.425	15.362
546.799	14.0071
550.174	13.3846
553.549	11.0057
556.924	9.65329
560.299	5.96964
563.674	3.65201
567.048	3.46326
570.423	1.38855
573.798	1.67157
577.173	2.64554
580.548	1.07776
583.923	1.93518
587.297	0.851959
590.672	0.843445
594.047	0.998169
597.422	0.114502
600.797	1.14731
604.171	0.407806
607.546	0.465942
610.921	1.71252
614.296	0.994019
617.671	3.43472
621.045	2.0658
624.42	3.98129
627.795	4.03177
631.17	1.93552
634.545	6.30841
637.919	6.49277
641.294	6.23093
644.669	5.41272
648.044	4.19708
651.419	4.15192
654.794	4.97821
658.168	4.21814
661.543	0.39328
664.918	0.20874
668.293	0.697174
671.668	0.16275
675.043	0.87674
678.417	1.57877
681.792	0.292145
685.167	4.25995
688.542	6.45853
691.917	11.2572
695.291	13.7472
698.666	13.7692
702.041	16.005
705.416	18.0771
708.791	16.9691
712.165	18.5354
715.54	18.6574
718.915	18.8105
722.29	21.2031
725.665	22.6263
729.039	27.5545
732.414	31.8856
735.789	37.8433
739.164	39.5822
742.539	42.6556
745.914	43.794
749.288	44.8062
752.663	41.5702
756.038	41.8641
759.413	37.6025
762.788	32.3621
766.163	30.0799
769.537	23.2016
772.912	22.7398
776.287	20.4467
779.662	16.5376
783.037	15.2439
786.411	13.5422
789.786	9.91418
793.161	8.42191
796.536	7.56894
799.911	6.40721
803.285	5.85919
806.66	4.37335
810.035	3.17677
813.41	1.88283
816.785	4.02399
820.159	1.57802
823.534	2.52777
826.909	1.99792
830.284	0.272598
833.659	0.719711
837.034	0.868484
840.408	1.47623
843.783	1.28514
847.158	0.818085
850.533	0.371277
853.908	1.4467
857.283	0.343445
860.657	0.33876
864.032	0.110443
867.407	0.321289
870.782	1.33823
874.157	1.03285
877.531	1.21375
880.906	3.75066
884.281	1.85043
887.656	2.27589
891.031	0.859207
894.405	1.67088
897.78	2.52438
901.155	1.21396
904.53	4.00561
907.905	2.25967
911.279	1.30902
914.654	2.86563
918.029	1.10939
921.404	2.68205
924.779	2.55385
928.154	1.47792
931.528	1.80525
934.903	2.81838
938.278	0.372162
941.653	1.35146
945.028	3.17789
948.403	0.319275
951.777	1.02515
955.152	0.532074
958.527	0.627808
961.902	2.6469
965.277	1.59167
968.651	2.02263
972.026	2.27065
975.401	0.711502
978.776	0.096664
982.151	2.19105
985.525	1.12332
988.9	1.21643
992.275	2.5713
995.65	0.241821
999.025	0.790894
1002.4	0.947937
1005.77	0.54776
1009.15	1.50066
1012.52	2.02129
1015.9	2.07895
1019.27	2.00584
1022.65	2.41591
1026.02	1.86478
1029.4	1.93736
1032.77	1.56566
1036.15	0.625168
1039.52	1.8259
1042.9	2.77594
1046.27	1.66721
1049.65	1.28842
1053.02	1.53081
1056.4	1.48405
1059.77	2.82887
1063.15	2.45508
1066.52	2.18489
1069.9	2.00705
1073.27	3.80687
1076.64	2.58531
1080.02	2.48068
1083.39	0.292175
1086.77	1.37123
1090.14	2.91858
1093.52	1.94777
1096.89	2.27464
1100.27	1.86958
1103.64	1.26891
1107.02	0.37056
1110.39	2.20673
1113.77	1.08264
1117.14	0.832214
1120.52	0.523605
1123.89	0.346329
1127.27	1.2478
1130.64	1.98879
1134.02	0.859848
1137.39	1.89697
1140.77	4.72058
1144.14	4.54381
1147.52	1.28955
1150.89	0.560455
1154.27	5.34512
1157.64	2.40042
1161.02	3.12898
1164.39	2.77998
1167.77	2.30327
1171.14	1.60107
1174.52	1.87569
1177.89	2.14838
1181.27	1.34286
1184.64	0.328415
1188.01	0.26474
1191.39	3.93024
1194.76	0.537125
1198.14	1.54195
1201.51	2.95313
1204.89	1.29266
1208.26	2.20784
1211.64	2.20679
1215.01	0.560509
1218.39	0.363274
1221.76	1.51183
1225.14	0.737297
1228.51	1.43584
1231.89	1.22091
1235.26	2.00569
1238.64	1.26306
1242.01	1.6816
1245.39	1.1976
1248.76	3.16228
1252.14	1.20123
1255.51	1.01547
1258.88	0.83239
1262.26	0.079185
1265.63	0.721512
1269.01	2.30922
1272.38	2.28836
1275.76	1.84627
1279.13	1.40266
1282.51	1.46612
