Measurement: Raman, 532 nm, unoriented, Raman Data Processed
Mineral: Spinel
Rruff sample: R050392
Ideal chemistry: MgAl_2_O_4_
Locality: Mogok, Burma
Source: Eric Van Valkenburg
Description: Pink octahedron
Measured chemistry: Mg_1.00_Al_1.96_Cr_0.04_O_4_
Raman shift (cm-1)	intensity
140.184	0
143.076	17.6416
145.969	24.3838
148.862	25.5391
151.755	43.5059
154.647	62.6738
157.54	58.916
160.433	11.4824
163.325	28.6367
166.218	41.749
169.111	84.9981
172.003	75.9981
174.896	81.8232
177.789	82.4551
180.681	30.2236
183.574	54.0781
186.467	46.7256
189.36	25.9658
192.252	4.05859
195.145	17.665
198.038	35.2295
200.93	9.00781
203.823	36.9834
206.716	72.2588
209.608	46.4102
212.501	79.0723
215.394	98.8252
218.287	146.206
221.179	178.933
224.072	211.892
226.965	178.467
229.857	150.884
232.75	142.356
235.643	160.233
238.536	194.105
241.428	181.821
244.321	189.606
247.214	157.573
250.106	164.488
252.999	173.509
255.892	181.759
258.784	155.033
261.677	168.98
264.57	126.897
267.462	160.735
270.355	131.711
273.248	133.721
276.141	126.862
279.033	117.208
281.926	110.478
284.819	125.415
287.711	170.171
290.604	139.328
293.497	154.625
296.389	152.963
299.282	137.636
302.175	157.08
305.068	142.05
307.96	199.463
310.853	263.747
313.746	253.553
316.638	132.562
319.531	65.5908
322.424	31.9033
325.317	18.7021
328.209	2.30469
331.102	20.915
333.995	19.2734
336.887	10.0498
339.78	22.3418
342.673	24.5146
345.565	7.43457
348.458	20.125
351.351	49.7607
354.243	44.0371
357.136	90.6982
360.029	61.6641
362.922	23.5547
365.814	21.6758
368.707	39.9043
371.6	83.4883
374.492	72.1572
377.385	82.2519
380.278	85.4834
383.171	124.189
386.063	195.605
388.956	262.574
391.849	374.739
394.741	565.533
397.634	780.824
400.527	1125.18
403.419	1554.65
406.312	1973.57
409.205	1691.96
412.098	994.331
414.99	577.376
417.883	309.731
420.776	213.983
423.668	148.652
426.561	98.3418
429.454	59.9629
432.346	58.2168
435.239	36.0732
438.132	15.1094
441.024	19.2158
443.917	12.9033
446.81	13.4023
449.703	0.300781
452.595	16.3926
455.488	9.46094
458.381	29.6377
461.273	10.8838
464.166	1.57227
467.059	15.123
469.952	2.47168
472.844	31.7051
475.737	16.3262
478.63	35.3086
481.522	29.2979
484.415	15.9697
487.308	33.2764
490.2	53.4219
493.093	20.2998
495.986	36.5293
498.878	60.6514
501.771	44.2119
504.664	31.3896
507.557	57.6094
510.449	43.1475
513.342	10.3662
516.235	11.2832
519.127	21.4492
522.02	12.71
524.913	31.208
527.806	45.8105
530.698	31.1846
533.591	16.3672
536.484	26.5996
539.376	46.7383
542.269	42.3359
545.162	35.2998
548.054	37.9209
550.947	25.4697
553.84	21.416
556.732	13.2607
559.625	46.3535
562.518	20.0566
565.411	36.835
568.303	22.751
571.196	12.3555
574.089	25.8779
576.981	26.8291
579.874	12.4746
582.767	39.793
585.659	42.2148
588.552	63.5029
591.445	30.4932
594.338	27.8496
597.23	14.3672
600.123	27.9307
603.016	9.69727
605.908	17.5186
608.801	40.6904
611.694	48.0303
614.587	48.7022
617.479	19.0186
620.372	3.08301
623.265	10.7207
626.157	1.1875
629.05	28.9004
631.943	20.001
634.835	29.3779
637.728	51.8975
640.621	85.0098
643.514	65.6807
646.406	102.556
649.299	109.888
652.192	199.549
655.084	303.663
657.977	406.618
660.87	545.756
663.762	637.552
666.655	596.251
669.548	454.495
672.441	329.308
675.333	227.67
678.226	167.279
681.119	85.5361
684.011	99.4277
686.904	57.0312
689.797	42.6426
692.689	33.1982
695.582	1.59961
698.475	8.50098
701.367	21.6748
704.26	11.4326
707.153	27.4824
710.046	37.3057
712.938	28.541
715.831	23.6211
718.724	24.1797
721.616	4.22266
724.509	21.0391
727.402	14.501
730.294	36.2812
733.187	49.835
736.08	57.1387
738.973	65.3672
741.865	64.5527
744.758	112.486
747.651	110.988
750.543	100.898
753.436	200.358
756.329	308.183
759.221	431.775
762.114	526.639
765.007	570.81
767.9	535.326
770.792	376.376
773.685	280.405
776.578	202.731
779.47	143.649
782.363	117.226
785.256	51.6065
788.149	54.792
791.041	15.9385
793.934	59.498
796.827	49.0537
799.719	21.0557
802.612	44.4932
805.505	37.5889
808.397	79.2705
811.29	33.0508
814.183	44.6807
817.076	80.6553
819.968	65.0371
822.861	41.5859
825.754	5.98828
828.646	3.50391
831.539	7.29297
834.432	10.6201
837.324	13.6201
840.217	17.9287
843.11	25.1914
846.003	9.44434
848.895	7.26465
851.788	50.4756
854.681	44.4395
857.573	93.6709
860.466	97.6377
863.359	99.4434
866.251	59.5303
869.144	86.7363
872.037	112.119
874.929	88.7139
877.822	115.901
880.715	62
883.608	27.0391
886.5	37.3848
889.393	35.0205
892.286	32.1787
895.178	12.8701
898.071	40.9062
900.964	55.7227
903.856	93.4033
906.749	74.6367
909.642	115.469
912.535	112.652
915.427	131.981
918.32	159.416
921.213	182.026
924.105	205.269
926.998	205.879
929.891	146.148
932.784	102.555
935.676	39.8779
938.569	7.86035
941.462	10.5049
944.354	7.9834
947.247	17.3018
950.14	7.20117
953.032	7.83203
955.925	30.7305
958.818	31.1172
961.711	44.2422
964.603	22.8477
967.496	21.9238
970.389	30.2344
973.281	24.6758
976.174	61.2598
979.067	101.504
981.959	116.738
984.852	112.139
987.745	110.906
990.638	91.1602
993.53	44.7852
996.423	72.2559
999.316	103.195
1002.21	84.1777
1005.1	87.2051
1007.99	117.912
1010.89	119.117
1013.78	52.0332
1016.67	26.0234
1019.57	66.1582
1022.46	120.748
1025.35	84.7246
1028.24	55.3086
1031.13	20.4648
1034.03	2.14648
1036.92	64.4219
1039.81	30.582
1042.71	46.1348
1045.6	86.4199
1048.49	72
1051.38	61.957
1054.28	43.7227
1057.17	70.2422
1060.06	81.8769
1062.95	83.3691
1065.85	70.2344
1068.74	72.5781
1071.63	44.8945
1074.53	75.5059
1077.42	101.068
1080.31	128.285
1083.2	76.8144
1086.1	19.9395
1088.99	21.0215
1091.88	33.875
1094.78	39.7129
1097.67	59.3223
1100.56	119.422
1103.45	114.703
1106.35	87.2422
1109.24	54.041
1112.13	39.1992
1115.02	59.3359
1117.92	70.0293
1120.81	81.0644
1123.7	125.709
1126.59	67.2109
1129.49	63.4941
1132.38	114.07
1135.27	135.51
1138.16	122.045
1141.06	93.6406
1143.95	57.373
1146.84	80.7812
1149.74	32
1152.63	79.1856
1155.52	27.5098
1158.41	0.667969
1161.31	8.33008
1164.2	30.2324
1167.09	52.0645
1169.98	0.523438
1172.88	40.3594
1175.77	38.3984
1178.66	43.9902
1181.56	68.7519
1184.45	2.125
1187.34	13.8809
1190.23	34.8379
1193.13	54.8555
1196.02	56.9082
1198.91	95.25
1201.81	144.861
1204.7	71.3867
1207.59	17.4082
1210.48	3.30664
1213.38	88.7598
1216.27	7.14648
