Measurement: Raman, 532 nm, unoriented, Raman Data Processed
Mineral: Spinel
Rruff sample: R110101
Ideal chemistry: MgAl_2_O_4_
Locality: Synthetic
Source: Gemological Institute of America
Description: A blue, cut (3.76ct) gemstone, grown by flame fusion.
Raman shift (cm-1)	intensity
128.097	0
131.472	13.353
134.847	2.95142
138.222	16.0474
141.597	48.6741
144.971	62.6975
148.346	57.9319
151.721	104.793
155.096	157.724
158.471	202.592
161.845	241.955
165.22	311.807
168.595	384.754
171.97	458.49
175.345	490.572
178.72	533.967
182.094	402.976
185.469	304.933
188.844	248.369
192.219	200.616
195.594	182.873
198.968	157.932
202.343	138.61
205.718	118.4
209.093	110.931
212.468	67.3581
215.843	66.654
219.217	50.9961
222.592	37.439
225.967	28.3794
229.342	19.7927
232.717	22.396
236.091	5.91675
239.466	7.97461
242.841	17.6138
246.216	10.0483
249.591	3.95923
252.965	15.0452
256.34	5.18066
259.715	23.1316
263.09	18.9177
266.465	23.9165
269.84	32.5828
273.214	70.5493
276.589	104.894
279.964	114.321
283.339	142.5
286.714	150.071
290.089	187.089
293.463	228.815
296.838	205.795
300.213	210.765
303.588	201.792
306.963	190.427
310.337	162.972
313.712	168.141
317.087	134.029
320.462	142.562
323.837	114.062
327.212	127.552
330.586	140.738
333.961	158.546
337.336	159.54
340.711	154.245
344.086	124.962
347.46	82.6189
350.835	66.8987
354.21	36.8557
357.585	29.3748
360.96	2.69165
364.334	26.0684
367.709	5.95483
371.084	28.0232
374.459	65.4373
377.834	102.494
381.209	167.971
384.583	247.324
387.958	327.557
391.333	416.68
394.708	504.835
398.083	617.593
401.457	682.401
404.832	748.733
408.207	792.58
411.582	812.268
414.957	806.71
418.332	786.493
421.706	730.87
425.081	676.07
428.456	631.666
431.831	574.287
435.206	518.112
438.58	419.092
441.955	349.133
445.33	289.873
448.705	231.828
452.08	177.351
455.454	131.995
458.829	83.1572
462.204	65.1206
465.579	41.9741
468.954	10.3984
472.329	3.77539
475.703	0.789795
479.078	0.497559
482.453	13.845
485.828	7.74097
489.203	0.610596
492.577	0.795898
495.952	12.6143
499.327	26.9148
502.702	24.352
506.077	24.4595
509.452	34.8857
512.826	23.4739
516.201	28.9097
519.576	32.7573
522.951	51.1323
526.326	50.4019
529.701	62.3884
533.075	51.3787
536.45	34.7441
539.825	40.4793
543.2	43.9497
546.575	29.405
549.949	12.1841
553.324	20.4473
556.699	17.0215
560.074	7.45825
563.449	4.80273
566.823	7.89111
570.198	3.45557
573.573	6.46362
576.948	6.91186
580.323	22.4558
583.697	17.583
587.072	13.0098
590.447	16.8154
593.822	12.2493
597.197	16.0835
600.572	14.5049
603.946	22.2459
607.321	14.2329
610.696	25.7886
614.071	22.3787
617.446	23.5552
620.821	15.4712
624.195	15.9753
627.57	13.7107
630.945	7.86108
634.32	1.26978
637.695	12.3755
641.069	2.0542
644.444	1.35913
647.819	10.4941
651.194	9.15771
654.569	2.51465
657.943	20.6235
661.318	24.384
664.693	26.1528
668.068	33.2644
671.443	31.814
674.818	43.5122
678.192	42.7126
681.567	64.5569
684.942	62.4431
688.317	80.9971
691.692	78.636
695.067	80.0801
698.441	63.291
701.816	59.3582
705.191	56.636
708.566	45.0898
711.941	24.898
715.315	26.7082
718.69	8.04639
722.065	4.01514
725.44	6.42651
728.815	11.5076
732.189	18.1729
735.564	11.1431
738.939	3.79785
742.314	4.50171
745.689	0.73584
749.063	12.7505
752.438	12.3557
755.813	40.0732
759.188	45.386
762.563	38.4573
765.938	47.1023
769.312	66.1042
772.687	67.6626
776.062	63.6965
779.437	62.1904
782.812	50.8027
786.187	44.5828
789.561	42.0061
792.936	44.3062
796.311	26.3132
799.686	17.8162
803.061	3.91504
806.435	20.9785
809.81	6.57031
813.185	13.9907
816.56	19.679
819.935	16.2673
823.309	9.18774
826.684	6.54981
830.059	5.59058
833.434	0.377441
836.809	2.88232
840.184	0.140625
843.558	17.9084
846.933	39.0654
850.308	39.9519
853.683	51.5915
857.058	65.5342
860.433	81.2141
863.807	93.4456
867.182	93.0737
870.557	78.7437
873.932	77.8804
877.307	77.8203
880.681	62.7075
884.056	62.4524
887.431	71.6758
890.806	77.2481
894.181	56.7249
897.556	60.9822
900.93	70.7546
904.305	64.0618
907.68	68.0378
911.055	63.8821
914.43	58.8884
917.804	54.6182
921.179	51.5967
924.554	59.6746
927.929	20.4834
931.304	5.93359
934.678	2.72119
938.053	7.1897
941.428	5.26269
944.803	11.3728
948.178	5.53418
951.553	1.37891
954.927	22.1816
958.302	16.208
961.677	14.6384
965.052	35.4465
968.427	38.6177
971.802	12.6716
975.176	18.3462
978.551	17.2007
981.926	15.0654
985.301	7.90479
988.676	19.2998
992.05	33.0676
995.425	13.9082
998.8	7.14771
1002.17	2.21216
1005.55	9.73755
1008.92	13.1814
1012.3	5.06934
1015.67	2.96313
1019.05	10.1457
1022.42	19.0442
1025.8	6.65601
1029.17	0.693604
1032.55	11.9922
1035.92	20.9856
1039.3	20.6008
1042.67	3.46069
1046.05	14.6321
1049.42	9.47461
1052.8	3.67017
1056.17	13.0088
1059.55	23.4065
1062.92	28.8235
1066.3	10.3748
1069.67	20.9136
1073.05	22.0137
1076.42	6.31396
1079.8	21.9849
1083.17	6.68799
1086.55	19.6814
1089.92	22.4768
1093.3	17.7356
1096.67	31.5859
1100.04	32.2056
1103.42	24.1096
1106.79	30.2183
1110.17	28.1433
1113.54	31.6345
1116.92	31.5112
1120.29	36.1814
1123.67	17.7417
1127.04	16.1003
1130.42	15.6882
1133.79	2.91553
1137.17	21.7632
1140.54	21.0178
1143.92	10.843
1147.29	15.4453
1150.67	15.3394
1154.04	21.5032
1157.42	5.65991
1160.79	7.29004
1164.17	9.69116
1167.54	3.44629
1170.92	0.882813
1174.29	2.73853
1177.66	9.42505
1181.04	9.74438
1184.41	13.8677
1187.79	19.4944
1191.16	15.6904
1194.54	21.5469
1197.91	10.1731
1201.29	9.67602
1204.66	12.1033
1208.04	22.3311
1211.41	29.7344
1214.79	17.1531
1218.16	7.87915
1221.54	7.52295
1224.91	24.1921
1228.29	13.0498
1231.66	22.8418
1235.04	2.86353
1238.41	2.14258
1241.79	16.9648
1245.16	14.4302
1248.54	28.5278
1251.91	23.5679
1255.29	32.0544
1258.66	38.1511
1262.04	51.9973
1265.41	41.4473
1268.79	49.009
1272.16	32.7305
1275.54	49.3027
1278.91	48.7732
1282.29	27.2737
1285.66	28.9614
1289.03	27.3364
1292.41	11.2505
1295.78	20.1328
1299.16	17.6504
1302.53	10.6309
