Measurement: Raman, 532 nm, unoriented, Raman Data Processed
Mineral: Spinel
Rruff sample: R120116
Ideal chemistry: MgAl_2_O_4_
Locality: Bo Phloi, Kanfhoutabori Province,Thailand
Source: Mark N. Feinglos
Description: Black glassy fragment
Measured chemistry: (Mg_0.74_Fe^2+^_0.24_)_Σ=0.98_(Al_1.82_Fe^3+^_0.17_Ti^4+^_0.01_)_Σ=2.00_O_4_
Raman shift (cm-1)	intensity
265.334	0
268.227	3.35687
271.12	1.47308
274.012	4.60135
276.905	1.88687
279.798	0.503113
282.69	1.21503
285.583	3.65595
288.476	2.11853
291.368	3.16095
294.261	0.25885
297.154	3.92175
300.047	3.23727
302.939	3.95679
305.832	6.75748
308.725	11.3336
311.617	9.68039
314.51	12.6428
317.403	16.626
320.296	19.905
323.188	24.1841
326.081	29.1313
328.974	35.3288
331.866	36.6499
334.759	39.993
337.652	38.1301
340.544	41.379
343.437	42.0016
346.33	36.9287
349.223	35.9504
352.115	33.731
355.008	31.3652
357.901	27.0445
360.793	25.2395
363.686	28.4122
366.579	24.7062
369.471	20.7553
372.364	22.7487
375.257	21.1285
378.149	23.619
381.042	21.4921
383.935	25.1
386.828	30.2717
389.72	32.8956
392.613	36.9296
395.506	41.7112
398.398	43.0551
401.291	45.2252
404.184	40.7768
407.077	36.7438
409.969	35.2362
412.862	29.9275
415.755	25.9719
418.647	22.8139
421.54	16.4128
424.433	14.8212
427.325	11.7078
430.218	13.6621
433.111	13.3054
436.003	8.92426
438.896	9.242
441.789	11.6412
444.682	7.71979
447.574	8.40607
450.467	5.35077
453.36	2.7265
456.252	0.542114
459.145	0.156128
462.038	0.266357
464.93	2.1286
467.823	5.02093
470.716	3.52893
473.609	2.93341
476.501	1.24353
479.394	1.2569
482.287	0.960876
485.179	5.51111
488.072	2.5578
490.965	1.37097
493.858	2.8689
496.75	6.91144
499.643	12.4097
502.536	22.3262
505.428	31.8639
508.321	42.3538
511.214	53.6223
514.106	65.0311
516.999	80.8821
519.892	92.2608
522.784	103.515
525.677	117.455
528.57	124.532
531.463	131.652
534.355	132.564
537.248	137.029
540.141	137.143
543.033	130.928
545.926	124.129
548.819	116.442
551.712	108.784
554.604	98.279
557.497	88.4553
560.39	78.8629
563.282	69.8797
566.175	59.4348
569.068	51.4032
571.96	48.6351
574.853	42.6012
577.746	35.7264
580.639	36.3676
583.531	33.6631
586.424	28.4445
589.317	25.2075
592.209	21.7477
595.102	20.3998
597.995	16.2466
600.888	16.1699
603.78	11.6869
606.673	9.35785
609.566	10.8986
612.458	11.6525
615.351	12.9374
618.244	18.6553
621.136	24.0646
624.029	26.23
626.922	30.1628
629.814	30.6437
632.707	31.7761
635.6	33.4923
638.493	37.5211
641.385	36.4863
644.278	39.6605
647.171	42.8118
650.063	44.0995
652.956	41.4911
655.849	40.4492
658.741	35.4768
661.634	27.9997
664.527	19.6431
667.42	7.12286
670.312	0.212341
673.205	6.19006
676.098	10.9555
678.99	14.2646
681.883	8.46722
684.776	0.838257
687.668	14.5266
690.561	34.9174
693.454	51.6199
696.347	66.7211
699.239	81.8328
702.132	90.5161
705.025	97.8245
707.917	99.8435
710.81	101.36
713.703	102.802
716.596	104.617
719.488	113.412
722.381	121.907
725.274	135.951
728.166	156.927
731.059	176.797
733.952	202.85
736.844	222.77
739.737	250.266
742.63	272.454
745.523	292.099
748.415	298.682
751.308	297.586
754.201	288.881
757.093	270.052
759.986	255.665
762.879	233.06
765.771	212.264
768.664	192.56
771.557	172.106
774.449	153.331
777.342	136.883
780.235	119.024
783.128	105.385
786.02	91.9544
788.913	78.6195
791.806	72.2833
794.698	63.8975
797.591	54.9244
800.484	47.8593
803.376	42.327
806.269	39.0738
809.162	34.2332
812.055	28.4583
814.947	25.2308
817.84	19.5713
820.733	21.8411
823.625	16.1465
826.518	13.7197
829.411	6.89871
832.303	5.73169
835.196	3.9743
838.089	0.276764
840.982	1.0394
843.874	2.28021
846.767	3.11679
849.66	3.72406
852.552	3.40625
855.445	3.6355
858.338	2.18726
861.231	0.513458
864.123	0.734009
867.016	3.06042
869.909	1.02911
872.801	6.46375
875.694	7.9581
878.587	10.0804
881.479	9.43329
884.372	13.4109
887.265	15.2116
890.158	16.882
893.05	17.7593
895.943	19.6555
898.836	20.2757
901.728	20.6309
904.621	21.2963
907.514	21.8126
910.406	19.9577
913.299	17.5026
916.192	17.2807
919.085	15.519
921.977	15.5032
924.87	14.7252
927.763	12.9604
930.655	14.5489
933.548	12.0887
936.441	13.962
939.333	10.2062
942.226	10.843
945.119	11.5789
948.011	8.30035
950.904	8.81986
953.797	6.52594
956.69	4.03555
959.582	6.67587
962.475	5.44455
965.368	6.78803
968.26	6.15616
971.153	6.15311
974.046	7.04968
976.938	5.59259
979.831	1.12528
982.724	3.40424
985.617	3.17331
988.509	3.51154
991.402	3.44064
994.295	2.34015
997.187	2.52838
1000.08	1.58112
1002.97	0.700409
1005.87	1.28665
1008.76	0.361023
1011.65	0.352783
1014.54	0.534485
1017.44	0.329956
1020.33	1.21765
1023.22	0.17337
1026.11	0.208344
1029.01	1.3949
1031.9	1.97144
1034.79	1.10355
1037.68	0.903412
1040.58	0.321533
1043.47	0.578278
1046.36	1.44174
1049.26	1.67764
1052.15	1.70413
1055.04	3.81381
1057.93	1.48074
1060.83	2.78204
1063.72	2.02878
1066.61	3.16254
1069.51	3.69519
1072.4	4.41974
1075.29	4.99759
1078.18	3.39041
1081.08	4.93445
1083.97	5.00732
1086.86	5.53851
1089.75	6.10336
1092.65	5.73398
1095.54	2.70099
1098.43	4.29663
1101.33	5.70667
1104.22	2.50128
1107.11	2.66098
1110	2.66894
1112.89	3.97821
1115.79	3.34824
1118.68	2.08881
1121.57	1.92966
1124.47	3.33023
1127.36	1.71124
1130.25	3.36743
1133.14	2.82962
1136.04	1.94421
1138.93	1.57413
1141.82	0.792938
1144.71	1.08804
1147.61	1.603
1150.5	2.28278
1153.39	0.179535
1156.29	0.188995
1159.18	0.631317
1162.07	0.772095
1164.96	0.518616
1167.86	1.33206
1170.75	0.366364
1173.64	2.24463
1176.54	2.31085
1179.43	2.80237
1182.32	3.37219
1185.21	0.453033
1188.11	1.72965
1191	1.91238
1193.89	2.51343
1196.78	3.75305
1199.68	4.73752
1202.57	2.68652
1205.46	6.25656
1208.35	6.51623
1211.25	4.04599
1214.14	3.22931
1217.03	1.95929
1219.92	0.471191
1222.82	0.47348
1225.71	1.42279
1228.6	0.19574
1231.5	2.85349
1234.39	0.402191
1237.28	1.36243
1240.17	0.483734
1243.07	1.88779
1245.96	1.44122
1248.85	0.655334
1251.74	1.90372
1254.64	2.7695
1257.53	3.70682
1260.42	4.25879
1263.32	3.28854
1266.21	2.15472
1269.1	1.92319
1271.99	2.18399
1274.89	1.74515
1277.78	1.22433
1280.67	2.96216
1283.57	1.60962
1286.46	1.71796
1289.35	1.98968
1292.24	0.547882
1295.13	3.78253
1298.03	3.5787
1300.92	1.00644
