Measurement: Raman, 532 nm, unoriented, Raman Data Processed
Mineral: Spodumene
Rruff sample: R050252
Ideal chemistry: LiAlSi_2_O_6_
Locality: Minas Gerais, Brazil
Source: Marcus Origlieri
Description: Pale lavendar cleavage fragment
Measured chemistry: Li_1.00_Al_1.00_Si_2.00_O_6_
Raman shift (cm-1)	intensity
144.71	0
148.085	0.884766
151.459	61.5957
154.834	131.242
158.209	73.3613
161.584	56.6133
164.959	78.9844
168.333	109.289
171.708	95.7441
175.083	188.945
178.458	300.15
181.833	329.102
185.208	329.309
188.582	454.172
191.957	320.787
195.332	287.236
198.707	44.3574
202.082	26.9258
205.457	36.7891
208.831	11.125
212.206	1.05664
215.581	38.7266
218.956	35.5195
222.331	103.785
225.705	138.801
229.08	276.506
232.455	256.881
235.83	340.234
239.205	430.369
242.579	512.389
245.954	653.484
249.329	877.373
252.704	612.475
256.079	468.682
259.454	418.873
262.828	403.387
266.203	265.647
269.578	220.484
272.953	244.596
276.328	340.736
279.702	536.449
283.077	744.971
286.452	926.678
289.827	1102.23
293.202	1400.14
296.577	1554.06
299.951	1173.58
303.326	569.482
306.701	225.539
310.076	92.3691
313.451	133.191
316.825	162.984
320.2	101.621
323.575	4.07227
326.95	70.2812
330.325	6.28125
333.7	67.5234
337.074	234.66
340.449	736.246
343.824	1134.55
347.199	1569.61
350.574	2375.99
353.948	3461.65
357.323	2821.89
360.698	1023.49
364.073	462.516
367.448	264.305
370.822	219.641
374.197	232.492
377.572	307.887
380.947	469.922
384.322	489.688
387.697	639.469
391.071	922.461
394.446	840.969
397.821	356.453
401.196	222.277
404.571	122.285
407.945	145.91
411.32	6.32422
414.695	82.5312
418.07	65.8398
421.445	4.91406
424.82	2.89453
428.194	255.668
431.569	438.301
434.944	514.031
438.319	739.445
441.694	821.133
445.068	778.68
448.443	428.668
451.818	167.902
455.193	102.402
458.568	27.7812
461.942	108.035
465.317	139.754
468.692	112.106
472.067	26.7852
475.442	70.3789
478.817	43.8789
482.191	25.7969
485.566	52.8945
488.941	84.9219
492.316	20.1055
495.691	8.36328
499.065	15.3125
502.44	302.285
505.815	465.59
509.19	469.062
512.565	610.738
515.94	656.68
519.314	866.894
522.689	993.664
526.064	793.438
529.439	450.535
532.814	150.332
536.188	275.695
539.563	292.781
542.938	268.926
546.313	247.484
549.688	277.371
553.063	169.445
556.437	101.984
559.812	79.0859
563.187	146.644
566.562	254.156
569.937	245.258
573.312	252.785
576.686	261.723
580.061	490.394
583.436	553.965
586.811	630.906
590.186	731.938
593.56	664.379
596.935	454.746
600.31	273.356
603.685	72.4883
607.06	66.8125
610.434	220.266
613.809	149.246
617.184	193.754
620.559	160.606
623.934	87.8984
627.308	155.496
630.683	251.68
634.058	235.086
637.433	89.8906
640.808	68.9414
644.183	9.86328
647.557	53.3281
650.932	38.875
654.307	51.8672
657.682	270.684
661.057	302.555
664.432	254.352
667.806	220.094
671.181	178.336
674.556	207.586
677.931	249.164
681.306	258.516
684.68	574.602
688.055	733.047
691.43	1179.03
694.805	1748.73
698.18	2467.26
701.554	3861.35
704.929	5102.85
708.304	4768.48
711.679	2333.46
715.054	984.352
718.428	500.133
721.803	273.555
725.178	126.211
728.553	241.148
731.928	256.117
735.303	146.203
738.677	105.977
742.052	78.7578
745.427	111.742
748.802	76.2812
752.177	95.3047
755.552	27.5234
758.926	42.2578
762.301	42.4922
765.676	108.484
769.051	99.3828
772.426	128.438
775.8	116.172
779.175	12.7031
782.55	281.656
785.925	376.953
789.3	372.805
792.674	241.359
796.049	189.969
799.424	234.609
802.799	171.969
806.174	397.445
809.549	468.367
812.923	258.641
816.298	143.133
819.673	153.938
823.048	127.242
826.423	222.188
829.798	301.078
833.172	207.484
836.547	189.719
839.922	11.9844
843.297	77.4922
846.672	278.992
850.046	531.562
853.421	282.664
856.796	269.156
860.171	416.266
863.546	583.109
866.92	396.352
870.295	96.7109
873.67	141.875
877.045	314.859
880.42	615.141
883.795	570.641
887.169	468.883
890.544	517.914
893.919	489.07
897.294	465.25
900.669	422.344
904.043	528.141
907.418	435.672
910.793	453.57
914.168	694
917.543	434.305
920.918	448.961
924.292	127.758
927.667	178.367
931.042	80.6875
934.417	75.0469
937.792	9.78125
941.166	208.727
944.541	95.1406
947.916	318.648
951.291	16.7969
954.666	286.453
958.04	350.266
961.415	372.336
964.79	266.094
968.165	430.344
971.54	675.492
974.915	731.477
978.289	634.891
981.664	747.797
985.039	490.211
988.414	536.5
991.789	467.594
995.163	178.289
998.538	27.3125
1001.91	5.8125
1005.29	126.297
1008.66	622.609
1012.04	593.727
1015.41	510.086
1018.79	524.016
1022.16	475.992
1025.54	609.023
1028.91	236.055
1032.29	166.445
1035.66	61.9219
1039.04	284.797
1042.41	109.906
1045.79	637.781
1049.16	778.484
1052.54	620.844
1055.91	527.031
1059.29	687.516
1062.66	938.281
1066.04	1877.86
1069.41	1931.06
1072.78	1763.94
1076.16	988.906
1079.53	702.094
1082.91	557.641
1086.28	777.625
1089.66	744.094
1093.03	550.609
1096.41	447.094
1099.78	253.734
1103.16	22.5781
1106.53	15.0625
1109.91	217.266
1113.28	67.2188
1116.66	527.891
1120.03	446.391
1123.41	161.766
1126.78	362.922
1130.16	626.125
1133.53	576.203
1136.91	165.062
1140.28	18.8594
1143.65	181.203
1147.03	109.656
1150.4	118.391
1153.78	360.234
1157.15	454.828
1160.53	142.875
1163.9	112.656
1167.28	623.766
1170.65	610.938
1174.03	595.188
1177.4	533.875
1180.78	445.062
1184.15	559.484
1187.53	397.062
1190.9	823.109
1194.28	392.375
1197.65	257.75
1201.03	52.1562
1204.4	97.625
1207.78	162.219
1211.15	333.219
1214.53	444.031
1217.9	656.5
1221.28	460.578
1224.65	561.578
1228.03	622.188
1231.4	512.953
1234.78	650.672
1238.15	85.1406
1241.53	209.797
1244.9	302.25
1248.28	758.922
1251.65	699.594
1255.02	535.328
1258.4	440.859
1261.77	378.594
1265.15	839.156
1268.52	490.344
1271.9	800.766
1275.27	556.688
1278.65	777.594
1282.02	620.781
1285.4	840.875
1288.77	316.609
1292.15	26.8594
1295.52	105.516
1298.9	39.8438
1302.27	518.938
