Measurement: Raman, 532 nm, unoriented, Raman Data Processed
Mineral: Spodumene
Rruff sample: R060039
Ideal chemistry: LiAlSi_2_O_6_
Locality: Black Hills, South Dakota, USA
Source: University of Arizona Mineral Museum
Description: Light green massive
Measured chemistry: Li_1.00_(Al_0.99_Fe^3+^_0.01_)Si_2.00_O_6_
Raman shift (cm-1)	intensity
135.177	0
138.552	0.490234
141.927	3.0105
145.301	28.5488
148.676	26.0066
152.051	28.2754
155.426	30.946
158.801	24.6379
162.175	27.679
165.55	30.4021
168.925	22.6111
172.3	31.2207
175.675	29.0544
179.049	33.6357
182.424	34.2529
185.799	36.6016
189.174	44.0317
192.549	22.4392
195.924	12.7297
199.298	7.93091
202.673	0.324951
206.048	4.26636
209.423	7.12158
212.798	2.84131
216.173	2.91699
219.547	6.92822
222.922	15.8709
226.297	24.2642
229.672	25.3367
233.047	18.0171
236.421	18.6357
239.796	29.6892
243.171	45.4585
246.546	81.1294
249.921	95.3628
253.295	67.0127
256.67	54.4683
260.045	44.8103
263.42	29.8716
266.795	12.3264
270.17	14.7886
273.544	21.0525
276.919	37.623
280.294	42.429
283.669	57.3357
287.044	80.4241
290.418	117.651
293.793	153.247
297.168	168.255
300.543	112.471
303.918	45.8928
307.293	23.3735
310.667	8.90356
314.042	2.05249
317.417	15.2024
320.792	7.98877
324.167	11.1655
327.541	1.27417
330.916	5.43774
334.291	17.2248
337.666	42.2944
341.041	83.5608
344.416	121.905
347.79	161.638
351.165	264.466
354.54	378.643
357.915	253.799
361.29	95.876
364.664	29.6399
368.039	13.2913
371.414	25.3762
374.789	18.7273
378.164	11.6619
381.538	33.7854
384.913	41.9841
388.288	64.8364
391.663	100.212
395.038	76.7593
398.413	29.8054
401.787	18.9487
405.162	9.52515
408.537	14.1553
411.912	4.61084
415.287	15.5415
418.661	7.78882
422.036	1.50537
425.411	10.3127
428.786	24.5518
432.161	37.4685
435.536	37.8625
438.91	47.5803
442.285	59.9307
445.66	50.0767
449.035	29.5186
452.41	22.7161
455.784	5.68359
459.159	4.62451
462.534	5.35229
465.909	6.59033
469.284	1.53198
472.659	1.73608
476.033	5.03735
479.408	0.663818
482.783	4.19995
486.158	1.39551
489.533	4.48804
492.907	0.299561
496.282	0.571777
499.657	12.5442
503.032	34.4409
506.407	49.0825
509.781	40.5112
513.156	56.8701
516.531	87.9619
519.906	97.6519
523.281	88.2358
526.655	59.3462
530.03	37.897
533.405	22.3227
536.78	26.9907
540.155	20.1904
543.53	23.3667
546.904	22.1352
550.279	20.8706
553.654	18.1885
557.029	12.4648
560.404	13.7178
563.779	18.916
567.153	18.5737
570.528	25.897
573.903	40.96
577.278	47.8755
580.653	61.1773
584.027	65.8232
587.402	62.6855
590.777	59.0942
594.152	23.2173
597.527	25.4077
600.902	19.9819
604.276	18.4609
607.651	7.17383
611.026	4.02295
614.401	13.125
617.776	7.2832
621.15	16.9414
624.525	2.79688
627.9	8.19287
631.275	2.52978
634.65	6.77783
638.024	3.58545
641.399	8.3794
644.774	12.4912
648.149	12.8784
651.524	1.14697
654.899	3.02832
658.273	8.5791
661.648	7.35938
665.023	15.3926
668.398	6.90869
671.773	3.17676
675.148	15.668
678.522	31.4736
681.897	31.8379
685.272	27.6494
688.647	54.8281
692.021	111.986
695.396	168.714
698.771	242.83
702.146	351.694
705.521	462.883
708.896	399.545
712.27	194.065
715.645	92.3882
719.02	58.6079
722.395	44.77
725.77	35.1387
729.144	16.9624
732.519	7.72656
735.894	4.08838
739.269	4.71582
742.644	9.0957
746.019	8.23145
749.393	12.0767
752.768	2.33203
756.143	0.588379
759.518	1.24121
762.893	4.25098
766.268	5.93311
769.642	12.5796
773.017	20.4292
776.392	21.731
779.767	12.0957
783.141	28.0122
786.516	26.2236
789.891	33.3906
793.266	25.7646
796.641	31.9477
800.016	18.3154
803.39	11.0513
806.765	4.22217
810.14	5.77539
813.515	0.592773
816.89	9.64844
820.264	0.941406
823.639	17.5239
827.014	26.0635
830.389	20.9053
833.764	8.79443
837.139	6.06055
840.513	4.74219
843.888	9.38135
847.263	3.00732
850.638	33.2129
854.013	17.602
857.388	36.9678
860.762	25.1309
864.137	16.6133
867.512	26.3042
870.887	26.2778
874.262	18.1977
877.636	19.1665
881.011	21.4639
884.386	21.5254
887.761	14.6646
891.136	13.2119
894.51	19.0889
897.885	12.063
901.26	7.03613
904.635	19.666
908.01	10.9292
911.385	0.423828
914.759	4.32715
918.134	13.5854
921.509	23.1172
924.884	12.2329
928.259	13.7632
931.634	24.0747
935.008	11.2793
938.383	8.76514
941.758	8.83984
945.133	9.38428
948.508	5.85352
951.882	3.1543
955.257	4.41602
958.632	0.310059
962.007	5.10889
965.382	14.1196
968.756	21.6665
972.131	49.9053
975.506	51.667
978.881	29.2788
982.256	36.9526
985.63	28.7759
989.005	30.6875
992.38	21.6426
995.755	10.0879
999.13	26.3032
1002.5	37.3579
1005.88	39.9839
1009.25	35.75
1012.63	44.5562
1016	67.0962
1019.38	88.9092
1022.75	52.2505
1026.13	22.689
1029.5	6.84766
1032.88	14.0605
1036.25	3.02393
1039.63	17.6455
1043	3.21777
1046.38	13.8003
1049.75	31.2837
1053.13	25.0264
1056.5	29.9414
1059.88	57.9126
1063.25	63.9932
1066.63	138.19
1070	181.425
1073.38	203.835
1076.75	103.614
1080.12	58.5884
1083.5	43.3843
1086.88	21.4526
1090.25	12.6611
1093.62	17.918
1097	23.3672
1100.37	39.8701
1103.75	40.8047
1107.12	30.2329
1110.5	6.5376
1113.87	16.665
1117.25	15.8779
1120.62	21.4116
1124	19.9683
1127.37	18.9087
1130.75	5.15576
1134.12	6.43213
1137.5	1.01221
1140.87	5.74268
1144.25	14.3286
1147.62	9.61279
1151	19.3965
1154.37	22.4878
1157.75	15.0015
1161.12	14.0996
1164.5	7.23731
1167.87	9.69873
1171.24	7.95703
1174.62	30.8633
1177.99	5.74658
1181.37	30.3638
1184.74	19.6167
1188.12	14.9932
1191.49	7.17871
1194.87	7.81982
1198.24	4.19189
1201.62	24.9751
1204.99	29.127
1208.37	20.4717
1211.74	21.8101
1215.12	26.4814
1218.49	29.4785
1221.87	39.1973
1225.24	44.4043
1228.62	38.9243
1231.99	31.8799
1235.37	35.4492
1238.74	21.2207
1242.12	14.6216
1245.49	28.1841
1248.87	51.6582
1252.24	37.7065
1255.62	36.8721
1258.99	38.4898
1262.37	37.1333
1265.74	35.3477
1269.12	28.3555
1272.49	48.9834
1275.87	25.0112
1279.24	17.7139
1282.61	8.70361
1285.99	23.7598
1289.36	12.4131
1292.74	1.04394
1296.11	15.7739
1299.49	2.51318
