Measurement: Raman, 514 nm, unoriented, Raman Data Processed
Mineral: Spodumene
Rruff sample: R050252
Ideal chemistry: LiAlSi_2_O_6_
Locality: Minas Gerais, Brazil
Source: Marcus Origlieri
Description: Pale lavendar cleavage fragment
Measured chemistry: Li_1.00_Al_1.00_Si_2.00_O_6_
Raman shift (cm-1)	intensity
148.942	0
151.711	68.6172
154.48	120.666
157.247	134.114
160.013	146.785
162.779	71.7993
165.544	50.5962
168.308	93.0015
171.07	26.4307
173.833	46.1592
176.594	146.768
179.354	138.228
182.114	179.304
184.872	417.655
187.63	550.231
190.387	411.658
193.143	257.489
195.898	201.251
198.652	164.865
201.405	94.5015
204.158	64.1387
206.909	131.775
209.66	92.2256
212.41	65.5068
215.159	0.96582
217.907	78.5635
220.654	34.0537
223.4	115.473
226.146	150.79
228.891	209.718
231.634	205.85
234.377	192.68
237.119	128.572
239.86	106.244
242.601	240.775
245.34	436.859
248.079	616.006
250.816	713.106
253.553	538.111
256.289	497.99
259.024	355.736
261.758	266.687
264.492	220.41
267.224	153.83
269.956	104.182
272.687	141.49
275.416	144.767
278.146	252.489
280.874	164.453
283.601	358.586
286.327	383.836
289.053	618.023
291.778	1098.39
294.502	1483.79
297.225	1404.05
299.947	933.206
302.668	596.585
305.389	350.445
308.108	177.476
310.827	62.831
313.545	73.7139
316.262	118.584
318.978	86.1611
321.693	41.1982
324.408	92.4902
327.121	151.121
329.834	81.0049
332.546	131.075
335.257	188.015
337.967	151.757
340.677	211.227
343.385	361.812
346.093	668.03
348.799	1378.29
351.505	2895.36
354.21	4492.56
356.915	3512.4
359.618	1923.15
362.321	959.61
365.022	590.991
367.723	261.074
370.423	163.311
373.122	236.963
375.821	295.69
378.518	270.652
381.215	293.57
383.91	331.85
386.605	474.211
389.299	562.91
391.992	734.327
394.685	757.969
397.376	685.947
400.067	465.502
402.757	150.312
405.446	163.125
408.134	203.531
410.821	321.551
413.508	225.394
416.193	468.81
418.878	289.135
421.562	184.287
424.245	211.318
426.927	263.224
429.609	251.999
432.289	380.374
434.969	300.783
437.648	648.065
440.326	859.12
443.003	868.869
445.68	720.457
448.355	556.663
451.03	359.134
453.704	357.761
456.377	188.909
459.049	155.006
461.721	32.3008
464.391	65.7441
467.061	174.164
469.73	32.0645
472.398	88.0059
475.065	23.7031
477.731	98.2305
480.397	20.1289
483.062	100.056
485.725	52.8848
488.389	19.0029
491.051	37.3848
493.712	50.831
496.373	77.8223
499.032	2.18555
501.691	101.135
504.349	26.1426
507.007	159.523
509.663	180.259
512.319	243.326
514.973	427.155
517.627	707.856
520.28	795.791
522.933	776.714
525.584	624.79
528.235	416.343
530.885	209.679
533.534	147.464
536.182	106.059
538.829	102.387
541.476	159.505
544.121	1.39941
546.766	137.059
549.41	176.476
552.053	24.6572
554.696	13.6309
557.337	29.3906
559.978	6.88672
562.618	75.2998
565.257	33.9434
567.895	131.516
570.533	219.456
573.17	75.5039
575.805	161.732
578.44	387.232
581.075	793.896
583.708	1006.25
586.341	867.915
588.972	962.644
591.603	724.593
594.233	498.836
596.863	367.832
599.491	211.304
602.119	196.249
604.746	180.785
607.372	175.769
609.997	343.161
612.621	99.8574
615.245	170.31
617.868	245.044
620.49	246.348
623.111	355.24
625.731	261.252
628.351	336.833
630.97	58.3467
633.588	170.026
636.205	168.47
638.821	177.476
641.437	366.274
644.051	5.42871
646.665	115.24
649.278	166.291
651.89	130.648
654.502	167.701
657.113	85.7656
659.722	254.465
662.331	84.2207
664.94	196.471
667.547	176.113
670.154	261.838
672.76	143.492
675.365	31.2949
677.969	308.592
680.572	126.559
683.175	393.768
685.777	355.217
688.378	385.578
690.978	503.606
693.577	660.352
696.176	870.406
698.774	1330.32
701.371	2655
703.967	4257.48
706.562	6569.93
709.157	4672.43
711.751	2759.59
714.344	1576.37
716.936	650.041
719.527	745.731
722.118	324.85
724.708	416.981
727.297	427.967
729.885	287.779
732.472	180.461
735.059	190.695
737.645	330.312
740.23	234.527
742.814	75.8711
745.397	344.898
747.98	45.1543
750.562	123.627
753.143	70.0859
755.723	224.143
758.303	345.549
760.881	25.3672
763.459	231.139
766.036	11.9512
768.613	67.6797
771.188	199.312
773.763	204.647
776.337	234.287
778.91	157.859
781.482	360.158
784.054	216.848
786.625	244.555
789.195	285.158
791.764	77.7109
794.332	5.60547
796.9	274.482
799.467	40.6875
802.033	303.172
804.598	403.603
807.163	256.123
809.726	218.119
812.289	123.769
814.851	123.816
817.413	123.023
819.973	101.492
822.533	36.1738
825.092	63.7734
827.65	174.58
830.208	215.111
832.764	250.693
835.32	199.732
837.875	283.508
840.429	159.666
842.983	106.783
845.536	126.916
848.088	409.676
850.639	389.414
853.189	128.435
855.739	190.512
858.288	127.824
860.836	245.293
863.383	141.103
865.93	80.041
868.475	290.023
871.02	80.4746
873.564	31.4473
876.108	152.17
878.65	151.019
881.192	175.244
883.733	238.394
886.274	262.098
888.813	594.039
891.352	188.272
893.89	224.504
896.427	131.986
898.964	136.926
901.499	227.949
904.034	186.977
906.568	266.092
909.102	191.799
911.634	238.502
914.166	244.26
916.697	129.244
919.227	318.848
921.757	178.256
924.285	277.365
926.813	317.17
929.341	242.357
931.867	237.611
934.393	111.346
936.918	30.7871
939.442	63.0039
941.965	353.795
944.488	135.299
947.009	204.56
949.53	254.992
952.051	125.617
954.57	115.953
957.089	178.984
959.607	115.478
962.124	138.986
964.641	166.688
967.156	372.935
969.671	358.764
972.185	393.318
974.699	793.318
977.211	1353.16
979.723	1283.76
982.234	686.652
984.745	48.7422
987.254	537.031
989.763	428.277
992.271	173.963
994.779	254.31
997.285	208.269
999.791	45.0605
1002.3	107.035
1004.8	189.885
1007.3	205.242
1009.81	247.111
1012.31	565.457
1014.81	415.217
1017.31	973.727
1019.81	1051.97
1022.31	1241.91
1024.81	636.023
1027.31	314.49
1029.8	575.481
1032.3	514.182
1034.79	524.311
1037.29	141.039
1039.78	262.148
1042.27	64.1914
1044.77	370.41
1047.26	293.666
1049.75	534.152
1052.24	545.477
1054.73	457.633
1057.22	681.43
1059.7	436.668
1062.19	674.508
1064.68	664.492
1067.16	970.699
1069.65	1478.04
1072.13	2455.75
1074.61	2161.77
1077.1	1340.03
1079.58	1233.46
1082.06	824.504
1084.54	903.391
1087.02	901.75
1089.5	523.519
1091.97	304.766
1094.45	243.184
1096.93	366.566
1099.4	423.977
1101.88	354.68
1104.35	445.832
1106.83	186.793
1109.3	95.2773
1111.77	126.992
1114.24	208.977
1116.71	149.527
1119.18	173.988
1121.65	153.629
1124.12	168.5
1126.59	19.2305
1129.06	47.5117
1131.52	173
1133.99	3.25781
1136.45	568.168
1138.91	494.828
1141.38	15.2891
1143.84	116.113
1146.3	535.215
1148.76	354.598
1151.22	290.336
1153.68	804.402
1156.14	616.426
1158.6	470.141
1161.06	322.777
1163.51	410.059
1165.97	666.25
1168.42	746.07
1170.88	518.719
1173.33	507.195
1175.78	743.078
1178.23	26.6406
1180.69	366.785
1183.14	686.016
1185.59	93.8867
1188.04	0
