Measurement: Raman, 780 nm, unoriented, Raman Data Processed
Mineral: Spurrite
Rruff sample: R050236
Ideal chemistry: Ca_5_(SiO_4_)_2_(CO_3_)
Locality: South Sister Peak, Luna County, New Mexico, USA
Source: Marcus Origlieri
Description: Lavendar-gray massive
Measured chemistry: Ca_5.00_(Si_1.00_O_4_)_2_(CO_3_)
Raman shift (cm-1)	intensity
92.3535	0
95.2462	4.20009
98.1389	8.85823
101.032	14.248
103.924	19.1765
106.817	25.7799
109.71	15.6353
112.602	5.35246
115.495	0.014236
118.388	0.953846
121.281	1.1301
124.173	5.80421
127.066	9.65292
129.959	12.3631
132.851	10.8744
135.744	12.5943
138.637	17.3474
141.529	26.0104
144.422	33.2831
147.315	32.7294
150.208	35.444
153.1	38.2576
155.993	44.1207
158.886	52.4044
161.778	58.4852
164.671	53.3107
167.564	47.2383
170.456	41.2017
173.349	34.0557
176.242	27.8118
179.135	28.1723
182.027	26.3862
184.92	22.6317
187.813	20.4591
190.705	19.7432
193.598	19.495
196.491	15.2714
199.383	12.8682
202.276	10.2351
205.169	3.86105
208.061	0.046379
210.954	1.15165
213.847	0.680054
216.74	0.589798
219.632	0.960266
222.525	4.89134
225.418	7.20396
228.31	9.03191
231.203	12.9036
234.096	18.9218
236.988	24.95
239.881	31.1149
242.774	38.1694
245.667	46.8589
248.559	55.8957
251.452	63.4894
254.345	68.801
257.237	63.2841
260.13	53.8557
263.023	47.8515
265.916	46.5679
268.808	42.1329
271.701	39.0607
274.594	34.2618
277.486	30.4688
280.379	28.948
283.272	26.2702
286.164	25.5463
289.057	26.2105
291.95	26.6955
294.842	26.0973
297.735	26.5795
300.628	25.1844
303.521	22.9087
306.413	21.4934
309.306	17.3828
312.199	13.2992
315.091	9.81698
317.984	5.84758
320.877	2.23055
323.769	1.77161
326.662	4.59463
329.555	2.55514
332.448	0.159225
335.34	6.48537
338.233	15.4406
341.126	23.5631
344.018	34.9806
346.911	43.3212
349.804	51.9276
352.697	53.8261
355.589	45.7144
358.482	36.886
361.375	27.0532
364.267	20.2255
367.16	14.4438
370.053	9.72174
372.945	9.1162
375.838	6.03975
378.731	7.24246
381.623	6.62543
384.516	4.91672
387.409	6.4154
390.302	3.2334
393.194	2.95325
396.087	6.34373
398.98	5.5637
401.872	1.87169
404.765	7.92079
407.658	17.5503
410.55	28.5082
413.443	42.0436
416.336	58.5831
419.229	78.2125
422.121	95.2208
425.014	116.296
427.907	134.534
430.799	153.865
433.692	171.006
436.585	187.136
439.478	206.28
442.37	228.205
445.263	253.026
448.156	285.108
451.048	325.859
453.941	367.397
456.834	412.3
459.726	456.926
462.619	493.515
465.512	520.181
468.404	521.571
471.297	505.339
474.19	475.937
477.083	439.627
479.975	397.732
482.868	349.97
485.761	297.289
488.653	246.416
491.546	200.245
494.439	158.069
497.332	125.731
500.224	100.52
503.117	80.4412
506.01	64.8376
508.902	53.3523
511.795	39.378
514.688	33.8255
517.58	26.1523
520.473	20.0219
523.366	11.0946
526.259	3.56374
529.151	2.94733
532.044	4.80579
534.937	4.88351
537.829	5.67342
540.722	1.61261
543.615	2.83121
546.507	6.43497
549.4	9.65051
552.293	13.2904
555.186	16.6322
558.078	20.2944
560.971	21.6358
563.864	21.2569
566.756	21.1586
569.649	23.9239
572.542	25.9058
575.434	25.7958
578.327	28.3843
581.22	30.2872
584.112	30.826
587.005	30.4941
589.898	28.5017
592.79	26.8972
595.683	24.2591
598.576	21.2317
601.469	18.926
604.361	17.3128
607.254	13.8485
610.147	10.9762
613.039	8.01532
615.932	5.73379
618.825	2.89427
621.717	0.161545
624.61	0.20253
627.503	1.64565
630.396	0.779739
633.288	2.11853
636.181	0.459335
639.074	0.093765
641.966	2.38376
644.859	4.11734
647.752	6.55022
650.644	8.81914
653.537	13.6413
656.43	16.0943
659.323	20.6696
662.215	27.1549
665.108	30.9841
668.001	35.4423
670.893	37.9082
673.786	42.6306
676.679	45.2596
679.572	48.0781
682.464	48.1831
685.357	49.2942
688.25	51.8848
691.142	50.8758
694.035	51.9811
696.928	54.2367
699.82	56.5455
702.713	57.2916
705.606	57.0528
708.499	56.4661
711.391	56.2522
714.284	51.842
717.177	49.133
720.069	47.0621
722.962	42.6462
725.855	39.8165
728.747	36.5561
731.64	32.1736
734.533	28.6717
737.426	25.0128
740.318	21.2617
743.211	17.5951
746.104	13.5614
748.996	10.542
751.889	7.44054
754.782	3.87476
757.674	1.73389
760.567	0.261307
763.46	0.211624
766.352	0.473755
769.245	1.3723
772.138	3.147
775.031	3.03883
777.923	5.54388
780.816	7.2777
783.709	8.8734
786.601	9.99205
789.494	10.9148
792.387	11.0472
795.279	11.826
798.172	11.119
801.065	10.8624
803.958	9.99969
806.85	8.27683
809.743	6.42993
812.636	3.58711
815.528	2.71861
818.421	0.918015
821.314	1.1235
824.207	1.8662
827.099	1.69335
829.992	0.012627
832.885	4.91264
835.777	15.4877
838.67	37.5474
841.563	58.8723
844.455	80.0887
847.348	106.847
850.241	147.41
853.134	177.89
856.026	140.949
858.919	118.77
861.812	127.461
864.704	154.035
867.597	113.902
870.49	47.8498
873.382	18.8573
876.275	9.48661
879.168	4.93035
882.061	3.2405
884.953	1.5415
887.846	1.21288
890.739	1.80238
893.631	3.78403
896.524	4.04634
899.417	3.58921
902.309	6.02195
905.202	7.56257
908.095	8.6192
910.987	9.55121
913.88	10.6598
916.773	13.7192
919.666	21.1557
922.558	28.4837
925.451	31.5974
928.344	36.9188
931.236	42.4164
934.129	42.446
937.022	27.3877
939.914	14.8588
942.807	8.63459
945.7	6.72131
948.593	6.07214
951.485	3.32658
954.378	1.45767
957.271	0.452873
960.163	0.563381
963.056	0.699482
965.949	1.05239
968.841	0.099945
971.734	0.454597
974.627	1.36559
977.52	3.30304
980.412	3.973
983.305	5.35936
986.198	7.49319
989.09	7.8825
991.983	6.47496
994.876	6.12443
997.769	6.81653
1000.66	8.08907
1003.55	8.01436
1006.45	7.97433
1009.34	6.37015
1012.23	6.01525
1015.12	5.82072
1018.02	5.55498
1020.91	5.26499
1023.8	4.37042
1026.7	4.21146
1029.59	3.74802
1032.48	3.34824
1035.37	3.46595
1038.27	4.18414
1041.16	3.77622
1044.05	3.7089
1046.94	3.98357
1049.84	4.36388
1052.73	4.76824
1055.62	4.62555
1058.52	5.27494
1061.41	7.55838
1064.3	9.72844
1067.19	22.5732
1070.09	38.3326
1072.98	47.5156
1075.87	67.6049
1078.76	90.5716
1081.66	89.1174
1084.55	29.3606
1087.44	11.9568
1090.34	6.61366
1093.23	5.48405
1096.12	3.88257
1099.01	3.51637
1101.91	3.44447
1104.8	1.89664
1107.69	3.92204
1110.58	0.350571
1113.48	0.685104
1116.37	0.957836
1119.26	0.070099
1122.15	0.048767
1125.05	0.012863
1127.94	0.66114
1130.83	0.937042
1133.72	1.61961
1136.62	2.06512
1139.51	2.54252
1142.4	2.68137
1145.3	1.06296
1148.19	1.693
1151.08	1.30356
1153.97	1.92254
1156.87	1.08352
1159.76	1.47649
1162.65	1.62623
1165.55	1.13104
1168.44	0.060974
1171.33	0
