Measurement: Raman, 780 nm, unoriented, Raman Data Processed
Mineral: Srebrodolskite
Rruff sample: R130096
Ideal chemistry: Ca_2_Fe^3+^_2_O_5_
Locality: Kopeisk, South Ural, Russia
Source: Rock Currier
Description: Dark brown grains, massive, associated with calcite. P-centered confirmed by X-ray diffraction.
Raman shift (cm-1)	intensity
105.181	0
108.556	0.393097
111.931	0.194275
115.305	2.96582
118.68	0.850769
122.055	5.63092
125.43	2.90805
128.805	5.12502
132.179	3.95482
135.554	6.11691
138.929	4.96272
142.304	7.64426
145.679	5.88733
149.054	6.22409
152.428	5.02226
155.803	1.32492
159.178	0.195068
162.553	1.18103
165.928	0.60376
169.302	0.01001
172.677	0.573395
176.052	1.72084
179.427	1.57892
182.802	2.16606
186.177	2.61467
189.551	2.65692
192.926	2.71158
196.301	3.62544
199.676	4.73453
203.051	6.68411
206.425	7.28935
209.8	4.88232
213.175	5.71011
216.55	3.82208
219.925	4.40187
223.299	4.505
226.674	2.162
230.049	1.49431
233.424	4.07857
236.799	5.51729
240.173	5.03136
243.548	5.87792
246.923	5.56964
250.298	3.45281
253.673	2.79486
257.048	1.65369
260.422	1.24216
263.797	0.047569
267.172	0.128792
270.547	0.641388
273.922	2.7454
277.296	4.22605
280.671	3.05305
284.046	1.67971
287.421	1.73702
290.796	0.598633
294.171	1.45056
297.545	1.74858
300.92	0.262672
304.295	2.29369
307.67	2.75915
311.045	3.05702
314.42	4.41793
317.794	3.25001
321.169	3.00212
324.544	3.08351
327.919	3.83955
331.293	1.93185
334.668	0.970581
338.043	0.862717
341.418	1.13695
344.793	0.275093
348.168	0.236969
351.542	0.361023
354.917	1.05081
358.292	1.04575
361.667	1.24625
365.042	1.56335
368.416	1.26353
371.791	0.669571
375.166	0.901855
378.541	1.31094
381.916	1.28461
385.291	0.3778
388.665	0.387337
392.04	0.777039
395.415	0.387596
398.79	0.649071
402.165	1.73159
405.539	0.942863
408.914	0.805
412.289	0.494202
415.664	0.653641
419.039	0.078743
422.413	0.483177
425.788	0.111298
429.163	1.48184
432.538	2.35376
435.913	3.97812
439.288	2.9812
442.662	2.91171
446.037	2.34354
449.412	1.88075
452.787	2.55806
456.162	3.3968
459.536	3.77169
462.911	4.40772
466.286	4.65575
469.661	4.57359
473.036	4.44453
476.411	4.37437
479.785	2.90585
483.16	3.82216
486.535	4.17381
489.91	3.59695
493.285	4.25712
496.659	3.9391
500.034	2.39961
503.409	3.24125
506.784	3.85578
510.159	2.98206
513.534	2.67225
516.908	3.57591
520.283	2.92046
523.658	3.61967
527.033	3.03456
530.408	4.04256
533.782	3.39298
537.157	3.69607
540.532	3.87693
543.907	4.6152
547.282	3.69711
550.656	3.4092
554.031	4.19579
557.406	3.51372
560.781	2.38259
564.156	2.15493
567.53	1.89047
570.905	1.09737
574.28	1.73459
577.655	0.233906
581.03	0.036552
584.405	0.095356
587.779	0.182697
591.154	0.912163
594.529	0.072319
597.904	0.428871
601.279	0.170135
604.654	1.0943
608.028	0.615791
611.403	0.430805
614.778	0.216858
618.153	0.838928
621.528	0.866402
624.902	1.50484
628.277	0.046326
631.652	1.67142
635.027	2.18348
638.402	2.56802
641.776	2.7251
645.151	3.05345
648.526	3.96927
651.901	5.9874
655.276	7.90014
658.65	7.27797
662.025	9.27704
665.4	11.1671
668.775	12.3428
672.15	13.3707
675.525	13.3694
678.899	13.3986
682.274	11.1968
685.649	11.5064
689.024	11.294
692.399	11.7454
695.774	11.571
699.148	10.6811
702.523	9.84033
705.898	9.9787
709.273	9.91982
712.648	8.93209
716.022	7.31592
719.397	6.45948
722.772	5.85985
726.147	5.36256
729.522	4.24287
732.896	3.81918
736.271	3.79122
739.646	2.41085
743.021	0.973145
746.396	2.43267
749.77	0.725353
753.145	0.728779
756.52	1.16061
759.895	0.911823
763.27	0.547516
766.645	0.120831
770.019	0.978275
773.394	0.101433
776.769	0.350452
780.144	0.06673
783.519	0.206421
786.894	0.387962
790.268	1.30222
793.643	0.529213
797.018	1.39341
800.393	0.280197
803.768	0.497576
807.142	0.304125
810.517	0.45491
813.892	0.731981
817.267	1.08067
820.642	1.65801
824.016	0.821575
827.391	0.944546
830.766	1.5256
834.141	0.704231
837.516	1.18781
840.89	0.407951
844.265	0.075048
847.64	0.743847
851.015	1.13181
854.39	0.391665
857.765	0.414186
861.139	0.53311
864.514	1.03366
867.889	1.07626
871.264	0.52965
874.639	0.205692
878.013	0.494987
881.388	1.08601
884.763	0.321871
888.138	0.64772
891.513	0.806089
894.888	0.136404
898.262	0.385046
901.637	0.779087
905.012	0.203238
908.387	0.339285
911.762	0.990402
915.136	0.461542
918.511	0.219156
921.886	0.142321
925.261	0.067852
928.636	1.0674
932.01	0.983967
935.385	1.17059
938.76	1.73048
942.135	0.695839
945.51	2.07986
948.885	1.68506
952.259	0.571594
955.634	1.29114
959.009	0.354254
962.384	0.56118
965.759	0.613552
969.133	0.639299
972.508	0.976049
975.883	1.87883
979.258	1.56487
982.633	2.15952
986.008	1.87986
989.382	2.76793
992.757	2.75486
996.132	2.27706
999.507	2.33791
1002.88	2.6745
1006.26	2.15405
1009.63	2.88734
1013.01	1.94863
1016.38	2.31158
1019.76	1.66125
1023.13	1.14502
1026.51	0.498833
1029.88	0.696991
1033.26	0.705999
1036.63	1.05053
1040.01	0.962076
1043.38	1.04577
1046.75	1.10665
1050.13	0.887945
1053.5	1.04302
1056.88	0.68288
1060.25	2.94731
1063.63	1.76133
1067	1.54188
1070.38	3.13356
1073.75	2.50072
1077.13	3.25674
1080.5	4.98153
1083.88	7.44737
1087.25	7.8106
1090.63	3.57022
1094	3.31465
1097.38	2.14305
1100.75	3.02128
1104.13	2.82637
1107.5	2.91032
1110.88	2.85083
1114.25	1.73983
1117.62	0.902346
1121	0.893517
1124.38	1.16705
1127.75	0.385878
1131.12	0.136562
1134.5	0.516747
1137.87	0.226418
1141.25	0.854034
1144.62	1.18864
1148	1.0556
1151.37	0.445057
1154.75	0.83675
1158.12	0.127926
1161.5	0.175009
1164.87	0.171389
1168.25	0.323112
1171.62	0.609131
1175	1.00256
1178.37	1.2624
1181.75	0.336687
1185.12	1.07372
1188.5	0.503027
1191.87	0.798424
1195.25	0.669239
1198.62	0.958593
1202	0.720743
1205.37	1.56595
1208.74	0.989883
1212.12	0.86338
1215.49	0.141817
1218.87	0.641563
1222.24	2.06465
1225.62	1.53125
1228.99	1.3645
1232.37	0.67024
1235.74	1.1036
1239.12	0.458534
1242.49	1.16234
1245.87	1.93908
1249.24	0.670549
1252.62	1.29424
1255.99	0.616945
1259.37	0.744923
1262.74	0.637691
1266.12	0.77877
1269.49	0.21714
1272.87	0.705463
1276.24	0.734701
1279.62	0.68214
1282.99	0.023981
