Measurement: Raman, 532 nm, unoriented, Raman Data Processed
Mineral: Srebrodolskite
Rruff sample: R130096
Ideal chemistry: Ca_2_Fe^3+^_2_O_5_
Locality: Kopeisk, South Ural, Russia
Source: Rock Currier
Description: Dark brown grains, massive, associated with calcite. P-centered confirmed by X-ray diffraction.
Raman shift (cm-1)	intensity
219.051	0
221.944	1.60924
224.836	1.5535
227.729	1.86977
230.622	1.7932
233.514	0.133484
236.407	1.74737
239.3	1.8244
242.193	2.0722
245.085	3.03732
247.978	2.55579
250.871	2.24788
253.763	0.464493
256.656	2.60701
259.549	1.01257
262.442	2.3658
265.334	1.01619
268.227	2.5309
271.12	2.56656
274.012	2.36731
276.905	3.59749
279.798	2.41985
282.69	1.55325
285.583	2.16562
288.476	1.86728
291.368	2.58914
294.261	1.67563
297.154	2.04054
300.047	1.39903
302.939	3.55412
305.832	3.0602
308.725	2.89381
311.617	3.6555
314.51	1.89404
317.403	3.35019
320.296	1.3132
323.188	2.60942
326.081	3.14581
328.974	2.03809
331.866	0.150787
334.759	1.66988
337.652	2.04605
340.544	2.68208
343.437	1.21251
346.33	2.44835
349.223	1.29486
352.115	1.37553
355.008	1.64043
357.901	0.881104
360.793	0.537506
363.686	0.835846
366.579	0.774475
369.471	0.995636
372.364	0.361511
375.257	0.093918
378.149	0.279129
381.042	0.722107
383.935	0.45192
386.828	1.65181
389.72	0.036331
392.613	1.15427
395.506	0.625656
398.398	0.646713
401.291	0.174332
404.184	0.477692
407.077	0.468231
409.969	1.00232
412.862	0.815399
415.755	0.600769
418.647	0.026093
421.54	0.424332
424.433	0.088898
427.325	0.874008
430.218	1.38532
433.111	3.48393
436.003	1.9566
438.896	2.07838
441.789	2.66136
444.682	1.52922
447.574	2.00952
450.467	2.8362
453.36	1.66869
456.252	2.39166
459.145	1.93964
462.038	2.15907
464.93	2.44696
467.823	1.67969
470.716	3.21892
473.609	2.19536
476.501	2.77506
479.394	2.35613
482.287	1.47691
485.179	2.09817
488.072	1.99753
490.965	1.09882
493.858	1.48177
496.75	0.423508
499.643	2.10565
502.536	1.48541
505.428	0.866531
508.321	1.06859
511.214	3.00171
514.106	2.83693
516.999	2.38374
519.892	1.4507
522.784	3.11246
525.677	2.52516
528.57	2.28726
531.463	2.31378
534.355	1.6019
537.248	2.49347
540.141	1.62167
543.033	0.286972
545.926	2.28746
548.819	1.06026
551.712	0.294968
554.604	1.81694
557.497	0.944763
560.39	0.498535
563.282	0.946289
566.175	1.11418
569.068	0.224197
571.96	1.02844
574.853	0.423492
577.746	0.942322
580.639	0.568451
583.531	0.202469
586.424	1.08638
589.317	0.399078
592.209	1.29607
595.102	1.12769
597.995	0.239929
600.888	0.762787
603.78	1.41786
606.673	0.509766
609.566	1.26212
612.458	0.936981
615.351	1.79771
618.244	4.14635
621.136	3.18321
624.029	3.4005
626.922	1.93416
629.814	1.02837
632.707	2.67848
635.6	2.83559
638.493	3.9856
641.385	4.24985
644.278	5.17671
647.171	4.76623
650.063	6.42105
652.956	6.83325
655.849	7.08278
658.741	7.45949
661.634	8.198
664.527	8.80019
667.42	9.80904
670.312	9.88443
673.205	11.6802
676.098	11.39
678.99	11.5849
681.883	10.6453
684.776	11.305
687.668	11.5889
690.561	12.8065
693.454	11.6006
696.347	13.1117
699.239	11.5152
702.132	9.62247
705.025	9.81946
707.917	9.86501
710.81	8.72687
713.703	8.65103
716.596	8.09042
719.488	7.36809
722.381	6.16365
725.274	4.68346
728.166	5.29942
731.059	5.07999
733.952	4.24329
736.844	0.260635
739.737	2.27567
742.63	2.01224
745.523	2.75232
748.415	2.09994
751.308	1.97374
754.201	0.341583
757.093	0.839523
759.986	0.73381
762.879	0.80748
765.771	0.462097
768.664	0.594574
771.557	1.67964
774.449	0.452087
777.342	0.566315
780.235	0.005005
783.128	0.541016
786.02	0.438522
788.913	0.266006
791.806	1.05006
794.698	1.24338
797.591	0.204819
800.484	0.075073
803.376	2.95662
806.269	0.406647
809.162	1.85794
812.055	0.097549
814.947	2.81979
817.84	2.93024
820.733	2.23654
823.625	2.60243
826.518	2.28819
829.411	3.0032
832.303	1.68155
835.196	2.00336
838.089	1.26354
840.982	2.81322
843.874	2.40626
846.767	2.45125
849.66	1.91974
852.552	2.93452
855.445	1.91064
858.338	2.10794
861.231	2.34721
864.123	2.00909
867.016	2.16222
869.909	2.19322
872.801	0.891754
875.694	1.8817
878.587	0.247421
881.479	1.74649
884.372	0.865448
887.265	0.195923
890.158	1.38818
893.05	0.213333
895.943	1.897
898.836	3.28423
901.728	1.12558
904.621	0.074097
907.514	0.292313
910.406	1.28374
913.299	0.657379
916.192	1.37474
919.085	1.69452
921.977	4.67311
924.87	1.70609
927.763	1.28479
930.655	0.163788
933.548	1.96425
936.441	1.51915
939.333	2.31209
942.226	2.19525
945.119	1.55249
948.011	1.78931
950.904	0.501816
953.797	0.646118
956.69	1.03368
959.582	0.516602
962.475	1.80269
965.368	1.38884
968.26	2.14639
971.153	0.195953
974.046	1.54468
976.938	2.11592
979.831	2.53744
982.724	3.58743
985.617	1.71889
988.509	1.33005
991.402	1.97156
994.295	1.6268
997.187	0.669907
1000.08	2.32101
1002.97	2.21306
1005.87	0.190613
1008.76	2.07606
1011.65	1.83739
1014.54	1.93027
1017.44	0.704819
1020.33	1.0741
1023.22	0.773193
1026.11	0.697845
1029.01	1.33051
1031.9	1.63
1034.79	0.797699
1037.68	1.17438
1040.58	0.093933
1043.47	1.07346
1046.36	1.91006
1049.26	0.578705
1052.15	0.651642
1055.04	1.06635
1057.93	1.57385
1060.83	0.687286
1063.72	0.162079
1066.61	1.18487
1069.51	2.08807
1072.4	1.31909
1075.29	1.90701
1078.18	1.49927
1081.08	3.67233
1083.97	3.65405
1086.86	7.46539
1089.75	3.62555
1092.65	3.25531
1095.54	3.05557
1098.43	1.85239
1101.33	1.85352
1104.22	0.88443
1107.11	0.713989
1110	1.32379
1112.89	1.78052
1115.79	5.26407
1118.68	3.54086
1121.57	1.44775
1124.47	2.80911
1127.36	1.12741
1130.25	3.33173
1133.14	0.892517
1136.04	0.731873
1138.93	1.09769
1141.82	1.20654
1144.71	0.734863
1147.61	1.43286
1150.5	1.58743
1153.39	1.577
1156.29	0.431183
1159.18	1.87241
1162.07	0.783264
1164.96	0.84967
1167.86	2.20145
1170.75	0.595642
1173.64	2.16519
1176.54	1.94443
1179.43	2.15826
1182.32	2.42368
1185.21	0.138611
1188.11	0.737854
1191	0.576416
1193.89	1.02496
1196.78	0.095398
1199.68	0.860931
1202.57	1.50125
1205.46	3.25617
1208.35	1.80307
1211.25	3.27029
1214.14	2.79303
1217.03	1.05936
1219.92	1.49655
1222.82	1.29529
1225.71	0.81424
1228.6	0.565796
1231.5	2.35217
1234.39	1.09686
1237.28	0.447052
1240.17	0.780273
1243.07	1.66138
1245.96	3.00333
1248.85	2.25452
1251.74	1.26498
1254.64	1.00439
1257.53	1.71991
1260.42	3.68295
1263.32	2.92242
1266.21	0.14917
1269.1	3.37894
1271.99	0.16925
1274.89	2.65006
1277.78	1.10925
1280.67	2.19196
1283.57	1.25623
1286.46	0.565186
1289.35	1.91269
1292.24	0.8172
1295.13	0.625397
1298.03	1.00043
1300.92	0.204651
