Measurement: Raman, 532 nm, unoriented, Raman Data Processed
Mineral: Stellerite
Rruff sample: R070535
Ideal chemistry: Ca_4_(Si_28_Al_8_)O_72_28H_2_O
Locality: Upper Clackamas River, Clackamas County, Oregon, USA
Source: James Shigley
Description: Sheaflike aggregates of white, tabular crystals
Measured chemistry: (Ca_3.91_K_0.09_)_Σ=4_(Si_28.09_Al_7.91_)O_72_·22.5H_2_O; trace amounts of Na; H_2_O estimated by difference
Raman shift (cm-1)	intensity
160.762	0
163.655	77.5527
166.547	110.404
169.44	44.6685
172.333	51.3677
175.225	4.34668
178.118	115.762
181.011	14.8867
183.904	40.8862
186.796	85.7329
189.689	114.784
192.582	97.2183
195.474	103.719
198.367	66.8359
201.26	84.7827
204.152	49.956
207.045	34.7363
209.938	1.66455
212.831	29.3189
215.723	38.7769
218.616	98.3442
221.509	42.856
224.401	95.584
227.294	37.5913
230.187	135.344
233.079	90.7334
235.972	118.749
238.865	71.144
241.758	128.88
244.65	84.6279
247.543	123.297
250.436	156.426
253.328	123.997
256.221	115.831
259.114	115.126
262.007	154.317
264.899	214.034
267.792	212.231
270.685	191.084
273.577	220.081
276.47	255.706
279.363	227.385
282.255	325.531
285.148	301.041
288.041	223.967
290.933	287.767
293.826	194.159
296.719	205.137
299.612	113.955
302.504	151.657
305.397	106.718
308.29	113.265
311.182	164.549
314.075	185.878
316.968	160.071
319.861	141.191
322.753	170.837
325.646	159.505
328.539	74.3237
331.431	51.1645
334.324	9.66357
337.217	43.4585
340.109	45.0523
343.002	24.1348
345.895	10.3667
348.788	53.1309
351.68	7.78662
354.573	8.3208
357.466	54.6533
360.358	7.41211
363.251	102.398
366.144	86.2817
369.036	188.173
371.929	188.452
374.822	267.179
377.714	382.948
380.607	496.576
383.5	558.855
386.393	735.592
389.285	890.264
392.178	1112.97
395.071	1466.43
397.963	1730.48
400.856	2146.04
403.749	2473.97
406.642	2670.92
409.534	2697.89
412.427	2514.02
415.32	2149.68
418.212	1756.07
421.105	1454.51
423.998	1151.66
426.89	862.141
429.783	759.331
432.676	530.465
435.568	375.435
438.461	405.801
441.354	335.445
444.247	293.887
447.139	320.36
450.032	363.271
452.925	468.097
455.817	477.831
458.71	481.28
461.603	366.228
464.495	243.418
467.388	244.674
470.281	117.377
473.174	88.5698
476.066	120.087
478.959	218.117
481.852	447.127
484.744	677.655
487.637	981.615
490.53	1270.63
493.423	1471.18
496.315	1663.04
499.208	1399.29
502.101	914.671
504.993	554.67
507.886	294.167
510.779	147.288
513.671	104.334
516.564	88.6201
519.457	27.4282
522.35	19.1665
525.242	18.4902
528.135	35.1435
531.028	5.09961
533.92	43.1406
536.813	34.0015
539.706	35.8315
542.598	0.820801
545.491	39.5239
548.384	54.3457
551.277	7.44824
554.169	18.4717
557.062	49.0464
559.955	82.1577
562.847	19.4595
565.74	11.3838
568.633	97.2378
571.525	121.085
574.418	136.63
577.311	94.6016
580.204	104.066
583.096	75.3418
585.989	43.1172
588.882	60.8169
591.774	93.0005
594.667	76.5161
597.56	160.106
600.452	174.502
603.345	236.242
606.238	234.438
609.131	292.543
612.023	279.996
614.916	311.351
617.809	219.925
620.701	262.19
623.594	203.598
626.487	149.706
629.38	154.316
632.272	181.802
635.165	142.038
638.058	96.6074
640.95	89.231
643.843	33.7446
646.736	61.0185
649.628	88.5918
652.521	77.1968
655.414	56.8525
658.307	26.9639
661.199	4.44189
664.092	25.9019
666.985	3.01465
669.877	6.12354
672.77	51.2236
675.663	32.8833
678.555	35.1831
681.448	44.1289
684.341	27.5996
687.234	50.4082
690.126	22.2105
693.019	46.6426
695.912	11.1113
698.804	23.6265
701.697	65.0102
704.59	84.2593
707.482	18.3374
710.375	49.0679
713.268	24.8291
716.16	5.2168
719.053	58.6216
721.946	9.71045
724.839	3.86279
727.731	74.3784
730.624	80.9126
733.517	19.5752
736.409	61.6065
739.302	32.6196
742.195	61.6973
745.087	66.4307
747.98	129.54
750.873	112.651
753.766	60.063
756.658	88.2148
759.551	40.4273
762.444	114.644
765.336	66.2847
768.229	118.929
771.122	155.442
774.014	162.3
776.907	150.856
779.8	168.711
782.693	260.592
785.585	255.954
788.478	312.543
791.371	275.544
794.264	304.926
797.156	174.824
800.049	240.616
802.942	316.801
805.834	219.321
808.727	173.973
811.62	140.11
814.512	95.9092
817.405	75.3047
820.298	100.621
823.191	95.5449
826.083	52.9492
828.976	14.5659
831.869	18.3608
834.761	61.5732
837.654	34.6802
840.547	7.56104
843.439	51.3721
846.332	9.48047
849.225	26.2852
852.117	57.8608
855.01	38.123
857.903	25.6582
860.796	87.729
863.688	121.173
866.581	87.0845
869.474	113.989
872.366	47.647
875.259	76.8677
878.152	73.0381
881.044	135.387
883.937	103.105
886.83	104.982
889.723	111.195
892.615	110.467
895.508	80.6894
898.401	34.6201
901.293	76.5127
904.186	46.0102
907.079	58.1055
909.971	122.772
912.864	88.6211
915.757	51.3984
918.65	63.3096
921.542	48.6602
924.435	71.6343
927.328	21.7261
930.22	52.0361
933.113	55.79
936.006	24.5918
938.899	43.8169
941.791	49.4819
944.684	64.8525
947.577	52.2925
950.469	28.1977
953.362	11.5171
956.255	109.47
959.147	10.022
962.04	68.4346
964.933	51.7861
967.826	58.0264
970.718	125.271
973.611	42.2622
976.504	105.043
979.396	11.5171
982.289	80.7007
985.182	57.9565
988.074	11.0298
990.967	48.1118
993.86	14.4985
996.753	3.4292
999.645	30.3159
1002.54	42.7705
1005.43	77.3394
1008.32	60.0908
1011.22	70.7949
1014.11	20.1133
1017	49.9019
1019.89	42.5825
1022.79	88.4004
1025.68	142.883
1028.57	95.8394
1031.46	46.6543
1034.36	109.394
1037.25	55.5513
1040.14	21.4297
1043.04	69.8662
1045.93	76.3423
1048.82	46.6807
1051.71	52.8852
1054.61	69.1187
1057.5	81.0483
1060.39	83.5542
1063.29	49.4653
1066.18	58.6182
1069.07	16.5254
1071.96	17.2842
1074.86	22.6807
1077.75	34.3296
1080.64	48.6758
1083.53	52.2803
1086.43	0.24707
1089.32	15.9917
1092.21	57.5
1095.1	30.3433
1098	112.569
1100.89	115.952
1103.78	95.5264
1106.67	122.055
1109.57	83.4092
1112.46	197.423
1115.35	209.036
1118.25	161.369
1121.14	169.61
1124.03	209.946
1126.92	175.423
1129.82	270.449
1132.71	260.518
1135.6	266.478
1138.49	300.546
1141.39	273.471
1144.28	260.49
1147.17	241.613
1150.07	240.979
1152.96	219.919
1155.85	281.852
1158.74	176.985
1161.64	231.778
1164.53	132.15
1167.42	98.8838
1170.32	109.827
1173.21	95.0811
1176.1	150.862
1178.99	70.9522
1181.88	112.3
1184.78	36.3789
1187.67	101.664
1190.56	38.7959
1193.46	40.709
1196.35	6.68555
1199.24	16.8223
1202.13	50.3281
1205.03	49.3272
1207.92	27.0898
1210.81	39.4688
1213.7	4.20508
1216.6	28.6172
1219.49	122.682
1222.38	191.017
1225.28	158.719
1228.17	90.8047
1231.06	53.7871
1233.95	77.0518
1236.85	89.1475
1239.74	81.7764
1242.63	63.6065
1245.53	43.2969
1248.42	85.7139
1251.31	28.7598
1254.2	33.3193
1257.1	18.4707
1259.99	3.91894
1262.88	56.7256
1265.77	76.5732
1268.67	134.005
1271.56	95.8418
1274.45	26.8564
1277.35	74.2832
1280.24	3.90723
1283.13	25.5547
1286.02	23.9385
1288.91	108.366
1291.81	1.05273
1294.7	9.53223
