Measurement: Raman, 780 nm, unoriented, Raman Data Processed
Mineral: Sternbergite
Rruff sample: R110137
Ideal chemistry: Ag^1+^Fe_2_S^2-^_3_
Locality: Joachimsthal, Bohemia, Czechoslovakia
Source: William W. Pinch
Description: Black sectile single crystals with good cleavage, some with purple iridescence, associated with stephanite.
Raman shift (cm-1)	intensity
109.442	0
112.817	1.32083
116.192	1.84541
119.566	0.570784
122.941	1.45851
126.316	0.558385
129.691	0.809071
133.066	0.424653
136.44	1.46992
139.815	1.58681
143.19	0.564067
146.565	0.278628
149.94	0.50357
153.315	0.990701
156.689	0.087297
160.064	0.466655
163.439	0.705637
166.814	0.369071
170.189	0.320275
173.563	0.208304
176.938	0.811852
180.313	1.18409
183.688	0.167975
187.063	0.166866
190.437	1.17514
193.812	1.08449
197.187	1.1661
200.562	0.920408
203.937	1.42049
207.311	0.688263
210.686	1.85648
214.061	1.94028
217.436	2.5968
220.811	1.59777
224.186	1.44671
227.56	1.20345
230.935	1.66823
234.31	0.930305
237.685	0.640969
241.06	0.724034
244.435	0.528731
247.809	0.471868
251.184	0.066292
254.559	0.133562
257.934	0.764805
261.309	0.843668
264.683	0.994106
268.058	0.430095
271.433	0.34877
274.808	0.070561
278.183	0.058118
281.558	0.140493
284.932	0.64278
288.307	0.832052
291.682	1.08356
295.057	2.31518
298.432	3.44196
301.806	4.00696
305.181	5.30644
308.556	6.5948
311.931	5.9566
315.306	4.30698
318.68	3.59634
322.055	3.58492
325.43	5.17953
328.805	3.21022
332.18	1.78124
335.555	0.607052
338.929	0.845615
342.304	1.02351
345.679	1.63445
349.054	2.20446
352.429	2.85914
355.803	4.24
359.178	2.67763
362.553	2.44351
365.928	2.53418
369.303	2.2875
372.678	1.99111
376.052	1.58313
379.427	1.1541
382.802	0.882185
386.177	0.080463
389.552	0.691865
392.926	0.830406
396.301	0.227256
399.676	0.350065
403.051	0.110834
406.426	0.506656
409.8	0.481567
413.175	0.356128
416.55	0.5393
419.925	0.006185
423.3	0.453467
426.675	0.032259
430.049	1.05414
433.424	0.091772
436.799	0.746453
440.174	0.444488
443.549	1.38069
446.923	0.518811
450.298	0.587105
453.673	1.59861
457.048	0.57836
460.423	0.805434
463.798	0.692112
467.172	1.32935
470.547	0.934061
473.922	1.94899
477.297	0.249518
480.672	0.327665
484.046	0.57648
487.421	0.862789
490.796	0.412676
494.171	0.87887
497.546	1.01997
500.921	0.03196
504.295	1.17303
507.67	0.667316
511.045	0.835686
514.42	0.415929
517.795	0.461327
521.169	0.264085
524.544	0.807928
527.919	0.874015
531.294	0.318984
534.669	0.320542
538.044	0.256587
541.418	1.15827
544.793	0.081355
548.168	0.749812
551.543	0.203773
554.918	0.612861
558.293	0.244349
561.667	0.647172
565.042	0.923354
568.417	0.912556
571.792	0.028845
575.167	0.623995
578.541	0.654435
581.916	0.513693
585.291	0.596923
588.666	0.479747
592.041	0.717945
595.415	0.306186
598.79	0.604783
602.165	0.567632
605.54	0.592839
608.915	0.526987
612.29	0.448315
615.664	0.857184
619.039	0.283345
622.414	0.219117
625.789	0.455167
629.164	0.360987
632.538	0.158659
635.913	0.138707
639.288	0.134351
642.663	0.148459
646.038	1.47318
649.413	0.28496
652.787	0.087816
656.162	0.25062
659.537	0.21091
662.912	0.130775
666.287	0.742611
669.661	0.0682
673.036	0.06659
676.411	1.05147
679.786	0.328147
683.161	0.185102
686.535	0.964538
689.91	0.425041
693.285	1.00262
696.66	0.655389
700.035	0.328047
703.41	0.585561
706.784	0.401042
710.159	1.24893
713.534	0.23105
716.909	0.182333
720.284	0.46806
723.659	0.208473
727.033	0.531073
730.408	0.280167
733.783	0.684763
737.158	0.404439
740.533	0.351953
743.907	1.12663
747.282	0.730097
750.657	0.776952
754.032	0.4212
757.407	0.452241
760.782	0.715121
764.156	0.217592
767.531	0.140161
770.906	0.239196
774.281	0.591186
777.656	0.519641
781.03	0.331576
784.405	0.153703
787.78	0.374635
791.155	0.169916
794.53	0.111466
797.904	0.712453
801.279	1.0109
804.654	0.674379
808.029	0.568717
811.404	0.573779
814.779	0.263258
818.153	0.488379
821.528	0.566905
824.903	0.585914
828.278	0.643889
831.653	0.378975
835.028	0.981585
838.402	0.58668
841.777	1.43349
845.152	0.512234
848.527	0.397075
851.902	0.640837
855.276	0.813515
858.651	0.594353
862.026	0.543938
865.401	0.245601
868.776	0.971013
872.15	0.639799
875.525	0.833827
878.9	0.930942
882.275	0.162092
885.65	0.199646
889.024	0.584413
892.399	0.491836
895.774	0.288161
899.149	0.279012
902.524	0.469297
905.899	0.38604
909.273	0.356062
912.648	0.327747
916.023	0.724361
919.398	0.603909
922.773	0.529147
926.148	0.558481
929.522	0.806573
932.897	0.378573
936.272	0.417679
939.647	0.338048
943.022	0.604706
946.396	0.023437
949.771	0.6168
953.146	1.26678
956.521	0.270154
959.896	0.587792
963.27	0.69503
966.645	0.907259
970.02	0.780634
973.395	0.605772
976.77	0.431994
980.145	0.458249
983.519	0.377209
986.894	0.069873
990.269	0.328693
993.644	0.26558
997.019	0.603717
1000.39	0.726536
1003.77	0.856943
1007.14	0.501687
1010.52	0.567553
1013.89	0.311548
1017.27	0.69433
1020.64	0.422708
1024.02	0.30861
1027.39	0.174696
1030.77	0.32901
1034.14	0.110395
1037.52	0.122943
1040.89	0.811258
1044.27	1.2209
1047.64	0.741532
1051.02	0.270748
1054.39	0.592339
1057.77	0.478679
1061.14	0.134862
1064.52	0.670583
1067.89	0.004464
1071.27	1.09827
1074.64	0.759767
1078.01	0.365815
1081.39	1.21366
1084.76	0.607969
1088.14	1.17085
1091.51	0.501554
1094.89	0.655616
1098.26	0.846282
1101.64	0.225736
1105.01	0.496492
1108.39	0.218266
1111.76	0.199918
1115.14	0.257988
1118.51	0.327892
1121.89	0.36077
1125.26	0.218555
1128.64	0.5122
1132.01	0.891096
1135.39	0.347285
1138.76	0.705429
1142.14	0.525527
1145.51	0.148588
1148.88	0.769755
1152.26	0.752908
1155.63	0.502185
1159.01	0.716881
1162.38	0.855923
1165.76	0.534403
1169.13	1.1515
1172.51	0.538289
1175.88	0.601104
1179.26	0.540644
1182.63	0.945846
1186.01	0.998249
1189.38	0.413782
1192.76	0.534573
1196.13	0.427277
1199.51	0.974714
1202.88	0.432828
1206.26	0.455514
1209.63	0.857799
1213.01	0.369245
1216.38	0.516085
1219.76	0.267378
1223.13	0.631627
1226.51	0.132648
1229.88	0.637717
1233.26	0.449549
1236.63	0.490872
1240.01	1.09433
1243.38	0.322483
1246.76	0.830105
1250.13	1.20713
1253.51	0.946329
1256.88	0.402633
1260.25	0.30203
1263.63	0.499474
1267	0.502022
1270.38	0.286867
1273.75	0.399252
1277.13	0.110381
1280.5	0.938984
1283.88	0.005448
