Measurement: Raman, 532 nm, unoriented, Raman Data Processed
Mineral: Stibarsen
Rruff sample: R070299
Ideal chemistry: SbAs
Locality: Varutrask, Skelleftea, Vasterbotten, Sweden
Source: James Shigley
Description: Grey metallic platy fragment associated with arsenic
Measured chemistry: gray: (Sb_0.92_As_0.08_)_Σ=1_As_1.00_; black rings: (As_0.98_Sb_0.02_)_Σ=1_ (arsenic)
Raman shift (cm-1)	intensity
149.662	0
152.554	41.0723
155.447	121.421
158.34	25.248
161.233	7.83643
164.125	7.75684
167.018	73.533
169.911	234.672
172.803	479.949
175.696	882.462
178.589	1449.88
181.482	2035.65
184.374	2839.09
187.267	3946.06
190.16	5493.95
193.052	5816.22
195.945	4208.81
198.838	2418.12
201.731	1540.64
204.623	1185.64
207.516	1031.06
210.409	1066.64
213.301	654.165
216.194	344.881
219.087	181.871
221.979	59.4551
224.872	25.3696
227.765	13.0881
230.657	12.0273
233.55	71.3684
236.443	15.4839
239.336	5.59131
242.228	11.0579
245.121	22.7307
248.014	8.13428
250.906	24.958
253.799	19.5813
256.692	18.009
259.584	4.50928
262.477	29.6067
265.37	51.9124
268.263	83.7732
271.155	52.3611
274.048	35.1125
276.941	21.5564
279.833	48.9519
282.726	39.1877
285.619	16.6487
288.512	37.9282
291.404	37.3223
294.297	40.6626
297.19	97.2498
300.082	47.3582
302.975	98.5591
305.868	127.221
308.76	114.642
311.653	146.036
314.546	186.377
317.438	183.739
320.331	204.756
323.224	223.948
326.117	218.795
329.009	196.223
331.902	216.336
334.795	229.472
337.687	204.163
340.58	190.395
343.473	213.106
346.365	163.163
349.258	158.528
352.151	156.777
355.044	123.695
357.936	141.434
360.829	98.6357
363.722	77.3225
366.614	65.7544
369.507	72.0706
372.4	37.1787
375.293	20.1101
378.185	65.2822
381.078	45.7759
383.971	63.1858
386.863	43.728
389.756	11.6755
392.649	15.5918
395.541	13.8379
398.434	8.26758
401.327	18.6282
404.219	26.6953
407.112	14.5745
410.005	35.5713
412.898	16.1687
415.79	11.3938
418.683	25.5347
421.576	3.38525
424.469	42.4929
427.361	64.4231
430.254	24.3789
433.147	4.17383
436.039	2.03882
438.932	5.98804
441.825	42.916
444.717	15.6958
447.61	5.67163
450.503	50.5491
453.396	13.8191
456.288	5.63208
459.181	25.312
462.074	45.7957
464.966	21.0198
467.859	12.8386
470.752	23.675
473.644	44.0488
476.537	41.9504
479.43	7.17896
482.322	7.48877
485.215	33.8145
488.108	64.064
491.001	37.5718
493.893	85.4668
496.786	58.6865
499.679	22.0483
502.571	29.21
505.464	46.4504
508.357	53.5488
511.25	16.1782
514.142	36.8574
517.035	48.7151
519.928	54.8328
522.82	46.2004
525.713	22.97
528.606	13.2087
531.498	20.2402
534.391	55.4558
537.284	53.1089
540.177	19.7795
543.069	23.468
545.962	22.864
548.855	22.6838
551.747	27.3591
554.64	43.418
557.533	31.7351
560.425	24.8657
563.318	58.352
566.211	23.3433
569.104	27.2588
571.996	31.4368
574.889	45.625
577.782	38.4465
580.674	50.0869
583.567	62.7114
586.46	32.2695
589.352	69.835
592.245	15.3713
595.138	40.0955
598.031	22.4309
600.923	4.77002
603.816	14.3967
606.709	13.7595
609.601	31.5432
612.494	0.532471
615.387	23.7854
618.279	20.1533
621.172	51.4656
624.065	52.876
626.958	20.2087
629.85	29.2537
632.743	33.0464
635.636	14.9978
638.528	37.9114
641.421	22.5178
644.314	51.6728
647.207	25.0237
650.099	44.4119
652.992	17.239
655.885	21.4099
658.777	60.3093
661.67	42.5557
664.563	28.988
667.455	75.7666
670.348	0.989502
673.241	53.0173
676.134	52.0029
679.026	17.8377
681.919	46.2109
684.812	23.8804
687.704	40.1106
690.597	5.49683
693.49	9.50366
696.382	4.06226
699.275	2.146
702.168	29.1875
705.061	28.3652
707.953	13.0535
710.846	26.1489
713.739	61.7429
716.631	27.845
719.524	90.4407
722.417	8.39673
725.309	46.2471
728.202	48.1711
731.095	46.0247
733.987	6.54199
736.88	58.8494
739.773	72.3777
742.666	60.5583
745.558	53.5537
748.451	73.751
751.344	48.8897
754.236	46.3376
757.129	20.2903
760.022	38.4495
762.915	64.9507
765.807	66.5759
768.7	18.0327
771.593	72.251
774.485	24.239
777.378	10.334
780.271	36.0835
783.163	23.394
786.056	53.9321
788.949	43.8967
791.842	12.917
794.734	42.1245
797.627	46.4434
800.52	19.9866
803.412	46.4497
806.305	42.9485
809.198	14.7871
812.091	12.8716
814.983	33.4529
817.876	24.9273
820.769	9.94873
823.661	26.698
826.554	22.7512
829.447	37.1587
832.339	31.3386
835.232	16.2312
838.125	38.8582
841.018	60.3687
843.91	38.4793
846.803	9.03662
849.696	28.4561
852.588	13.8665
855.481	5.24878
858.374	59.9338
861.266	23.8567
864.159	33.1255
867.052	56.9683
869.944	3.27222
872.837	44.8728
875.73	47.803
878.623	78.5908
881.515	15.5847
884.408	29.1245
887.301	30.835
890.193	3.72534
893.086	13.2532
895.979	17.9336
898.871	19.1672
901.764	43.9404
904.657	18.4658
907.55	69.7678
910.442	24.0483
913.335	47.7651
916.228	21.5691
919.12	27.791
922.013	12.4846
924.906	72.5952
927.798	65.46
930.691	23.04
933.584	25.9751
936.477	39.9375
939.369	64.5054
942.262	67.5889
945.155	35.2585
948.047	30.3433
950.94	73.6013
953.833	56.0554
956.726	22.7441
959.618	31.9016
962.511	26.5554
965.404	40.5862
968.296	3.91602
971.189	16.3337
974.082	0.126709
976.974	44.396
979.867	49.5999
982.76	30.769
985.653	31.4446
988.545	7.24439
991.438	26.2537
994.331	48.1157
997.223	49.5981
1000.12	8.35034
1003.01	50.9023
1005.9	16.0339
1008.79	42.9031
1011.69	0.473389
1014.58	5.29419
1017.47	21.478
1020.37	48.1423
1023.26	37.3909
1026.15	41.9871
1029.04	24.189
1031.94	46.7266
1034.83	8.38794
1037.72	67.1206
1040.61	42.779
1043.51	51.7173
1046.4	14.2029
1049.29	35.2859
1052.18	50.2197
1055.08	23.386
1057.97	50.27
1060.86	23.0769
1063.76	47.1677
1066.65	21.4797
1069.54	2.61646
1072.43	68.5942
1075.33	49.9749
1078.22	32.552
1081.11	27.6965
1084	39.4321
1086.9	32.9783
1089.79	40.4731
1092.68	31.1631
1095.58	82.0588
1098.47	61.4495
1101.36	3.24048
1104.25	33.814
1107.15	34.634
1110.04	3.56152
1112.93	43.9805
1115.82	28.1785
1118.72	71.7451
1121.61	60.8843
1124.5	19.8569
1127.39	62.1602
1130.29	10.7241
1133.18	4.04663
1136.07	83.7017
1138.97	22.0027
1141.86	49.4785
1144.75	43.072
1147.64	36.8755
1150.54	96.1575
1153.43	37.4116
1156.32	72.9939
1159.21	38.7908
1162.11	50.0508
1165	46.99
1167.89	31.9185
1170.79	55.5029
1173.68	20.0791
1176.57	42.801
1179.46	13.2383
1182.36	10.7175
1185.25	22.7903
1188.14	69.9883
1191.03	30.1289
1193.93	61.1052
1196.82	54.1343
1199.71	66.2788
1202.61	29.2812
1205.5	3.94873
1208.39	36.5112
1211.28	28.7622
1214.18	34.0342
1217.07	17.8511
1219.96	29.8081
1222.85	28.0561
1225.75	42.3809
1228.64	33.1963
1231.53	39.6792
1234.42	44.3335
1237.32	53.9995
1240.21	25.1904
1243.1	53.248
1246	16.9917
1248.89	92.9971
1251.78	6.50732
1254.67	68.479
1257.57	58.2148
1260.46	81.2642
1263.35	53.5752
1266.24	6.49902
1269.14	41.4111
1272.03	57.8897
1274.92	51.3701
1277.82	53.104
1280.71	13.6992
1283.6	59.3154
1286.49	8.35059
1289.39	39.6807
1292.28	40.3174
1295.17	11.0527
1298.06	5.8999
1300.96	21.0693
1303.85	49.3242
