Measurement: Raman, 785 nm, unoriented, Raman Data Processed
Mineral: Stibarsen
Rruff sample: R070299
Ideal chemistry: SbAs
Locality: Varutrask, Skelleftea, Vasterbotten, Sweden
Source: James Shigley
Description: Grey metallic platy fragment associated with arsenic
Measured chemistry: gray: (Sb_0.92_As_0.08_)_Σ=1_As_1.00_; black rings: (As_0.98_Sb_0.02_)_Σ=1_ (arsenic)
Raman shift (cm-1)	intensity
158.142	0
161.035	11.6646
163.928	1.25751
166.821	9.59675
169.713	10.9229
172.606	70.4516
175.499	39.3572
178.391	51.8203
181.284	43.2561
184.177	148.808
187.069	293.398
189.962	527.395
192.855	557.605
195.748	442.653
198.64	214.446
201.533	119.139
204.426	77.817
207.318	69.8446
210.211	40.8475
213.104	1.52884
215.996	5.98964
218.889	7.32421
221.782	5.80994
224.674	5.16797
227.567	0.119266
230.46	0.248384
233.353	2.60081
236.245	15.7857
239.138	13.8984
242.031	41.8621
244.923	57.2552
247.816	53.2715
250.709	63.0015
253.601	114.582
256.494	111.241
259.387	92.6012
262.28	89.3842
265.172	88.6844
268.065	106.186
270.958	103.503
273.85	89.9578
276.743	71.3055
279.636	66.9681
282.529	63.27
285.421	47.1259
288.314	35.6058
291.207	36.957
294.099	29.203
296.992	45.483
299.885	42.2946
302.777	42.7828
305.67	67.6932
308.563	78.9448
311.455	71.5003
314.348	66.3561
317.241	64.0027
320.134	58.9516
323.026	45.4348
325.919	44.4785
328.812	40.2227
331.704	42.7043
334.597	44.5501
337.49	35.482
340.382	38.0619
343.275	31.5674
346.168	29.6455
349.061	23.6609
351.953	12.2114
354.846	14.6424
357.739	9.10802
360.631	0.27164
363.524	1.09987
366.417	6.74003
369.31	6.11289
372.202	0.116941
375.095	5.13424
377.988	11.4901
380.88	22.8602
383.773	13.5102
386.666	0.770973
389.558	3.63925
392.451	3.59496
395.344	2.5684
398.236	1.88509
401.129	1.6268
404.022	4.70853
406.915	2.85244
409.807	0.853152
412.7	8.50956
415.593	14.3492
418.485	15.1071
421.378	1.26047
424.271	9.2623
427.163	10.6018
430.056	0.268785
432.949	8.17286
435.842	4.25528
438.734	5.26919
441.627	6.26514
444.52	5.3392
447.412	6.20991
450.305	0.977595
453.198	16.1526
456.091	17.9228
458.983	14.2789
461.876	9.06852
464.769	12.1087
467.661	14.2367
470.554	0.035576
473.447	6.52169
476.339	3.11363
479.232	9.62039
482.125	8.04024
485.017	11.9316
487.91	11.8048
490.803	11.5087
493.696	16.898
496.588	5.93079
499.481	15.2035
502.374	7.86595
505.266	1.12257
508.159	3.23148
511.052	1.43778
513.944	1.27051
516.837	6.76497
519.73	4.03104
522.623	14.2597
525.515	10.5107
528.408	0.684814
531.301	5.54849
534.193	6.0851
537.086	0.869461
539.979	0.559295
542.871	5.26745
545.764	9.26736
548.657	7.53456
551.55	8.45592
554.442	1.84569
557.335	14.1835
560.228	7.41301
563.12	0.542953
566.013	1.552
568.906	8.83078
571.798	4.39506
574.691	1.4299
577.584	2.08084
580.477	2.90366
583.369	5.16569
586.262	12.4788
589.155	8.70567
592.047	3.52726
594.94	15.4566
597.833	0.127379
600.726	3.15169
603.618	13.3496
606.511	7.14401
609.404	3.45301
612.296	6.14157
615.189	1.16305
618.082	0.846857
620.974	13.3459
623.867	5.22154
626.76	13.3136
629.653	6.90794
632.545	0.728263
635.438	14.9864
638.331	9.57388
641.223	5.34372
644.116	12.9245
647.009	4.85902
649.901	12.9152
652.794	4.08767
655.687	0.666772
658.58	14.4492
661.472	14.326
664.365	11.8977
667.258	1.93632
670.15	15.1196
673.043	0.285081
675.936	1.71724
678.828	8.45491
681.721	17.9876
684.614	9.72652
687.506	2.81257
690.399	11.7846
693.292	13.3002
696.185	8.76839
699.077	5.54412
701.97	1.0441
704.863	9.93707
707.755	9.81214
710.648	0.996061
713.541	2.18362
716.433	8.9931
719.326	14.0275
722.219	12.2575
725.112	4.10983
728.004	15.3006
730.897	17.3711
733.79	8.51094
736.682	11.0641
739.575	4.39698
742.468	1.37406
745.361	17.0717
748.253	5.05248
751.146	6.88489
754.039	6.39388
756.931	2.67467
759.824	10.649
762.717	11.3374
765.609	8.81407
768.502	0.7529
771.395	11.3645
774.288	10.5245
777.18	12.2978
780.073	1.60682
782.966	3.59381
785.858	0.531891
788.751	5.23534
791.644	0.922648
794.536	7.28784
797.429	4.41922
800.322	10.5862
803.215	13.6894
806.107	7.55534
809	8.99009
811.893	3.00144
814.785	9.75868
817.678	13.3547
820.571	5.85774
823.463	0.172601
826.356	13.0775
829.249	7.01603
832.141	2.11803
835.034	12.4007
837.927	0.917043
840.82	5.93994
843.712	1.76295
846.605	12.0816
849.498	0.12955
852.39	0.369915
855.283	3.45276
858.176	15.1836
861.068	9.25491
863.961	13.1741
866.854	19.2747
869.747	8.96851
872.639	9.37212
875.532	1.44805
878.425	9.64986
881.317	6.88897
884.21	12.6884
887.103	5.11299
889.995	7.85973
892.888	6.79184
895.781	5.49526
898.674	6.53442
901.566	6.75115
904.459	1.2738
907.352	0.620408
910.244	3.13872
913.137	12.0422
916.03	10.218
918.923	4.79976
921.815	3.24509
924.708	5.24194
927.601	3.56514
930.493	9.74325
933.386	7.99167
936.279	0.150471
939.171	5.52575
942.064	5.54497
944.957	3.91766
947.85	3.83227
950.742	0.449614
953.635	4.59144
956.528	5.62847
959.42	4.20792
962.313	12.3851
965.206	15.4196
968.098	0.740136
970.991	14.719
973.884	7.31276
976.777	12.9842
979.669	9.2263
982.562	2.9787
985.455	9.4652
988.347	7.21012
991.24	0.398786
994.133	5.8072
997.025	3.01191
999.918	5.13237
1002.81	5.06583
1005.7	11.6288
1008.6	18.5976
1011.49	8.33678
1014.38	8.87691
1017.27	15.2583
1020.17	6.30691
1023.06	0.548092
1025.95	11.7257
1028.85	12.1263
1031.74	1.22554
1034.63	7.19991
1037.52	4.93891
1040.42	12.768
1043.31	1.42096
1046.2	1.64311
1049.09	10.0253
1051.99	2.95769
1054.88	7.23123
1057.77	9.82985
1060.66	13.0151
1063.56	14.2258
1066.45	5.86646
1069.34	2.38345
1072.24	0.298709
1075.13	16.4908
1078.02	6.08312
1080.91	11.4277
1083.81	14.1821
1086.7	1.04124
1089.59	9.55937
1092.48	12.957
1095.38	11.5118
1098.27	1.03391
1101.16	9.76773
1104.06	9.5685
1106.95	7.97099
1109.84	10.1581
1112.73	1.03315
1115.63	8.36783
1118.52	9.4132
1121.41	2.64618
1124.3	8.41229
1127.2	5.96872
1130.09	3.46673
1132.98	10.6483
1135.88	0.165502
1138.77	1.28488
1141.66	4.14544
1144.55	15.0706
1147.45	0.97068
1150.34	0.204841
1153.23	9.26998
1156.12	7.27684
1159.02	0.186267
1161.91	12.0626
1164.8	1.5581
1167.69	6.88969
1170.59	8.18958
1173.48	11.1975
1176.37	9.24886
1179.27	8.56747
1182.16	14.3258
1185.05	20.4974
1187.94	8.0338
1190.84	9.24866
1193.73	0.007133
1196.62	11.861
1199.51	8.92833
1202.41	10.7266
1205.3	7.92215
1208.19	12.5154
1211.09	21.6819
1213.98	3.07205
1216.87	17.8632
1219.76	7.56979
1222.66	5.63363
1225.55	0.230909
