Measurement: Raman, 780 nm, unoriented, Raman Data Processed
Mineral: Stichtite
Rruff sample: R050475
Ideal chemistry: Mg_6_Cr^3+^_2_CO_3_(OH)_16_4H_2_O
Locality: near Dundas, Tasmania, Australia
Source: California Institute of Technology
Description: Aggregate of purple contorted plates
Measured chemistry: Mg_6.00_(Cr_0.97_Fe^3+^_0.75_Al_0.28_)_Σ=2_(CO_3_)(OH)_16_·4H_2_O ; (dark phase) C not measured but estimated by difference; light inclusion: chromite (Mg_0.53_Fe^2+^_0.47_)_Σ=1_(Cr^3+^_1.62_Al_0.33_Fe^3+^_0.05_)_Σ=2_O_4_
Raman shift (cm-1)	intensity
144.405	0
147.298	0.944489
150.191	0.048035
153.084	2.29494
155.976	2.90817
158.869	1.93603
161.762	1.9053
164.654	1.62413
167.547	2.4994
170.44	0.888336
173.333	0.34024
176.225	0.533356
179.118	0.560013
182.011	2.70563
184.903	0.671249
187.796	1.2704
190.689	0.194473
193.581	1.13933
196.474	1.103
199.367	0.085602
202.26	0.196243
205.152	1.03365
208.045	0.044785
210.938	1.04257
213.83	1.37097
216.723	1.22618
219.616	1.53095
222.508	1.77617
225.401	3.13383
228.294	1.88182
231.186	3.15657
234.079	2.02908
236.972	2.11604
239.865	1.91647
242.757	2.70085
245.65	3.11696
248.543	3.35866
251.435	3.17021
254.328	1.81911
257.221	1.40323
260.114	1.80801
263.006	2.52394
265.899	1.56387
268.792	1.63922
271.684	2.09311
274.577	1.99457
277.47	0.908188
280.363	0.65448
283.255	1.90508
286.148	3.29852
289.041	2.85051
291.933	2.39375
294.826	1.4899
297.719	1.66594
300.611	2.05994
303.504	1.68149
306.397	1.63661
309.289	3.29871
312.182	1.96053
315.075	1.80997
317.968	1.8235
320.86	1.95012
323.753	1.36542
326.646	1.96883
329.538	0.904968
332.431	0.132385
335.324	0.819489
338.216	0.837982
341.109	0.071686
344.002	1.12292
346.895	0.085037
349.787	0.625122
352.68	1.28149
355.573	1.44881
358.465	1.15395
361.358	0.691925
364.251	0.626022
367.144	0.630981
370.036	0.134369
372.929	0.619736
375.822	0.985214
378.714	1.26102
381.607	0.597839
384.5	1.88237
387.392	1.29495
390.285	1.13797
393.178	0.064178
396.071	1.04188
398.963	0.592697
401.856	0.001785
404.749	0.318008
407.641	0.25325
410.534	0.142181
413.427	0.156128
416.32	0.930145
419.212	1.80838
422.105	2.10518
424.998	0.532684
427.89	2.34103
430.783	2.33002
433.676	3.19827
436.568	2.21503
439.461	2.07552
442.354	3.20644
445.247	4.28166
448.139	2.05559
451.032	3.06967
453.925	4.04449
456.817	5.56544
459.71	4.34433
462.603	4.85442
465.495	3.53774
468.388	1.77998
471.281	1.48251
474.173	0.144196
477.066	0.265099
479.959	1.13223
482.852	1.17027
485.744	0.327606
488.637	0.911011
491.53	0.896889
494.422	0.378571
497.315	0.289474
500.208	0.328568
503.101	1.21036
505.993	1.89515
508.886	1.88928
511.779	4.32397
514.671	5.97007
517.564	7.81724
520.457	9.35373
523.349	12.4678
526.242	13.1771
529.135	16.5277
532.028	16.4741
534.92	15.6577
537.813	15.0862
540.706	12.159
543.598	8.91878
546.491	5.50894
549.384	3.84655
552.276	2.71439
555.169	2.06036
558.062	0.78511
560.955	0.153633
563.847	0.729187
566.74	0.700768
569.633	0.13118
572.525	0.437202
575.418	0.536064
578.311	0.356468
581.203	1.01424
584.096	0.184944
586.989	0.997215
589.882	0.929436
592.774	0.472687
595.667	0.218849
598.56	0.511879
601.452	1.17798
604.345	0.728424
607.238	0.113083
610.13	0.934593
613.023	0.613945
615.916	0.96254
618.809	0.642181
621.701	0.577507
624.594	1.13269
627.487	0.164688
630.379	1.11628
633.272	1.38796
636.165	1.43517
639.058	0.639145
641.95	0.998871
644.843	0.892723
647.736	0.619263
650.628	0.999329
653.521	1.11581
656.414	0.691833
659.306	1.52287
662.199	1.28838
665.092	0.442932
667.985	1.02025
670.877	1.79485
673.77	0.293999
676.663	0.604118
679.555	0.554909
682.448	1.39265
685.341	2.00161
688.233	1.64126
691.126	1.89581
694.019	1.28505
696.912	2.08289
699.804	1.27062
702.697	0.368813
705.59	0.7948
708.482	0.728287
711.375	1.19469
714.268	0.391228
717.16	1.71375
720.053	1.27798
722.946	1.41048
725.839	0.064865
728.731	0.374092
731.624	1.94367
734.517	1.24113
737.409	0.561035
740.302	0.026131
743.195	0.756866
746.087	0.543175
748.98	0.161102
751.873	0.811356
754.766	0.700615
757.658	0.694801
760.551	0.497253
763.444	0.564804
766.336	0.241402
769.229	0.705276
772.122	0.55629
775.014	0.22995
777.907	0.030098
780.8	0.609093
783.693	0.857552
786.585	0.203979
789.478	0.252136
792.371	1.13907
795.263	0.524063
798.156	0.651726
801.049	0.905525
803.942	1.01261
806.834	0.760864
809.727	0.772888
812.62	1.26224
815.512	1.05011
818.405	1.58401
821.298	0.464157
824.19	0.987373
827.083	0.79483
829.976	1.44692
832.869	1.22858
835.761	0.217819
838.654	1.29469
841.547	0.879738
844.439	1.1219
847.332	1.18677
850.225	0.919128
853.117	1.28638
856.01	1.80251
858.903	1.97287
861.795	0.335243
864.688	1.49762
867.581	2.33617
870.474	1.06872
873.366	1.48177
876.259	1.20767
879.152	1.31703
882.044	0.836182
884.937	0.034973
887.83	1.15679
890.722	0.436653
893.615	1.22347
896.508	0.524696
899.401	0.470184
902.293	0.062363
905.186	0.177948
908.079	1.09777
910.971	0.397209
913.864	0.4804
916.757	0.543968
919.65	0.863411
922.542	0.467995
925.435	0.463226
928.328	0.242981
931.22	0.13623
934.113	0.640297
937.006	0.745171
939.899	0.987892
942.791	0.554474
945.684	0.952263
948.577	0.478897
951.469	0.165115
954.362	0.999977
957.255	0.37854
960.147	1.26575
963.04	0.653366
965.933	0.837708
968.826	0.822426
971.718	0.161827
974.611	0.049873
977.504	0.173615
980.396	0.164391
983.289	0.732735
986.182	0.132477
989.074	0.270218
991.967	0.534378
994.86	0.398918
997.753	0.527794
1000.64	0.550163
1003.54	0.538757
1006.43	1.62198
1009.32	1.16943
1012.22	1.1245
1015.11	1.14228
1018	1.50712
1020.89	1.04683
1023.79	1.03218
1026.68	1.24674
1029.57	1.44799
1032.46	1.32331
1035.36	1.09
1038.25	1.6457
1041.14	1.52293
1044.04	2.21679
1046.93	3.29567
1049.82	3.94455
1052.71	2.85296
1055.61	2.93767
1058.5	3.64994
1061.39	2.31569
1064.29	1.47986
1067.18	0.908516
1070.07	1.38253
1072.96	2.94104
1075.86	1.13184
1078.75	1.34101
1081.64	0.152981
1084.53	0.174183
1087.43	0.444851
1090.32	0.285694
1093.21	0.085239
1096.1	0.749344
1099	0.648972
1101.89	1.03746
1104.78	0.180607
1107.67	0.671833
1110.57	0.810555
1113.46	0.588467
1116.35	0.002312
1119.25	0.141144
1122.14	0.86306
1125.03	0.267792
1127.92	0.930336
1130.82	0.438393
1133.71	0.127346
1136.6	0.341049
1139.49	1.11418
1142.39	1.00184
1145.28	0.524708
1148.17	0.087269
1151.07	0.862858
1153.96	0.412529
1156.85	0.845898
1159.74	0.217743
1162.64	0.669533
1165.53	1.07935
1168.42	0.223488
1171.32	1.13271
1174.21	0.848537
1177.1	0.789825
1179.99	0.511795
1182.88	0.546173
1185.78	0.451275
1188.67	0.097855
1191.56	0.971268
1194.46	0.731113
1197.35	0.77589
1200.24	0.999207
1203.13	0.504883
1206.03	1.16249
1208.92	0.866344
1211.81	1.15728
1214.7	0.000557
1217.6	0.392315
1220.49	0.314095
1223.38	0.137825
1226.28	1.08176
1229.17	0.394848
1232.06	0.629669
1234.95	0.319862
1237.85	0.418255
1240.74	0.247353
1243.63	1.14937
1246.53	0.650406
1249.42	0.325562
1252.31	0.47226
1255.2	0.770775
1258.1	0.837093
1260.99	0.397999
1263.88	1.02323
1266.77	1.97631
1269.67	0.399452
1272.56	0.631821
1275.45	1.4189
1278.35	0.485252
1281.24	0.387123
1284.13	0.455265
1287.02	0
