Measurement: Raman, 532 nm, unoriented, Raman Data Processed
Mineral: Stichtite
Rruff sample: R060675
Ideal chemistry: Mg_6_Cr^3+^_2_CO_3_(OH)_16_4H_2_O
Locality: Nevada Creek, Dundas, Tasmania, Australia
Source: Michael Scott
Description: Purple massive, associated with green serpentine
Raman shift (cm-1)	intensity
178.011	0
180.903	1.71503
183.796	4.29033
186.689	18.2552
189.581	19.6938
192.474	20.8065
195.367	20.9255
198.26	21.668
201.152	27.0791
204.045	18.2574
206.938	11.0654
209.83	6.21885
212.723	10.1753
215.616	18.9335
218.508	20.6595
221.401	20.6153
224.294	10.2917
227.186	11.0049
230.079	2.83824
232.972	3.32103
235.865	7.26235
238.757	8.77403
241.65	19.0252
244.543	8.23958
247.435	17.2656
250.328	10.0649
253.221	14.0135
256.113	11.0713
259.006	16.2977
261.899	8.33931
264.792	7.63109
267.684	13.1842
270.577	23.5788
273.47	38.7776
276.362	47.5468
279.255	58.7307
282.148	43.0878
285.041	53.5717
287.933	75.8696
290.826	78.2379
293.719	69.5295
296.611	52.4627
299.504	35.6464
302.397	43.4175
305.289	38.5445
308.182	52.3537
311.075	65.7004
313.967	61.3311
316.86	60.2756
319.753	50.3557
322.646	44.5023
325.538	37.0252
328.431	48.5928
331.324	13.1831
334.216	7.15627
337.109	3.39905
340.002	20.5152
342.894	23.151
345.787	15.324
348.68	2.13892
351.573	0.29091
354.465	12.6228
357.358	7.32368
360.251	13.5356
363.143	19.0272
366.036	20.1559
368.929	11.6366
371.822	2.79591
374.714	4.5153
377.607	18.022
380.5	14.8209
383.392	24.3161
386.285	21.2669
389.178	19.3443
392.07	3.82095
394.963	10.4307
397.856	3.30419
400.748	2.12615
403.641	18.3192
406.534	8.51387
409.427	1.08004
412.319	0.406821
415.212	36.3983
418.105	57.44
420.997	77.7334
423.89	63.6176
426.783	47.842
429.675	53.937
432.568	32.237
435.461	24.1143
438.354	41.5753
441.246	61.5249
444.139	58.5936
447.032	64.5531
449.924	53.5591
452.817	85.4727
455.71	90.016
458.603	109.873
461.495	117.499
464.388	96.4891
467.281	75.3215
470.173	52.7687
473.066	32.4984
475.959	0.890229
478.851	3.77396
481.744	0.261085
484.637	1.20314
487.529	24.4353
490.422	19.4706
493.315	17.2243
496.208	17.8723
499.1	26.7853
501.993	38.3029
504.886	58.0919
507.778	89.7794
510.671	148.02
513.564	233.848
516.457	297.289
519.349	404.903
522.242	536.947
525.135	697.696
528.027	830.365
530.92	976.964
533.813	1069.31
536.705	1075.38
539.598	942.26
542.491	715.072
545.384	481.399
548.276	339.346
551.169	210.162
554.062	120.182
556.954	74.6067
559.847	49.8217
562.74	49.8477
565.632	33.5592
568.525	8.6914
571.418	4.91198
574.311	12.4125
577.203	12.5152
580.096	17.0265
582.989	11.6181
585.881	19.1978
588.774	21.1149
591.667	0.48516
594.559	6.66301
597.452	4.79607
600.345	1.4644
603.237	5.66258
606.13	1.43041
609.023	6.35992
611.916	18.8193
614.808	17.2482
617.701	11.9214
620.594	1.82849
623.486	8.23938
626.379	13.9587
629.272	16.5909
632.164	7.42522
635.057	9.72531
637.95	12.337
640.843	12.2932
643.735	14.295
646.628	8.30975
649.521	14.9511
652.413	29.9248
655.306	12.7877
658.199	5.1426
661.091	2.71913
663.984	2.8742
666.877	4.93248
669.77	19.7899
672.662	12.762
675.555	4.52761
678.448	1.96509
681.34	8.3494
684.233	4.65928
687.126	7.41589
690.019	15.0811
692.911	12.3562
695.804	5.14984
698.697	1.61491
701.589	2.90756
704.482	5.41086
707.375	10.1852
710.267	14.2232
713.16	8.60944
716.053	25.9032
718.946	15.7196
721.838	19.1075
724.731	40.6856
727.624	51.3706
730.516	27.1097
733.409	25.8954
736.302	28.5923
739.194	42.5135
742.087	36.4632
744.98	53.9437
747.872	56.9894
750.765	67.7023
753.658	51.714
756.551	32.5806
759.443	16.2015
762.336	26.2622
765.229	22.1637
768.121	15.33
771.014	26.8961
773.907	20.7548
776.799	16.2698
779.692	14.1565
782.585	12.1143
785.478	23.2372
788.37	15.6213
791.263	0.969163
794.156	2.87125
797.048	0.28832
799.941	3.64779
802.834	3.94288
805.726	34.0264
808.619	37.103
811.512	18.1427
814.405	18.1838
817.297	22.7258
820.19	54.0528
823.083	22.202
825.975	8.67473
828.868	3.97445
831.761	2.91895
834.654	8.75486
837.546	1.21343
840.439	19.7907
843.332	31.0528
846.224	31.3629
849.117	25.1665
852.01	22.1679
854.902	17.2082
857.795	24.3736
860.688	39.9693
863.581	29.1033
866.473	9.71963
869.366	13.8848
872.259	27.7206
875.151	29.0332
878.044	19.1927
880.937	7.44992
883.829	2.14676
886.722	1.90706
889.615	16.2715
892.508	23.4102
895.4	33.4011
898.293	26.3366
901.186	13.6668
904.078	30.8224
906.971	25.3037
909.864	12.876
912.756	16.1809
915.649	11.4028
918.542	2.0542
921.434	0.998115
924.327	13.2985
927.22	3.94535
930.113	11.5129
933.005	5.89255
935.898	3.24516
938.791	1.03911
941.683	0.594656
944.576	18.4056
947.469	24.1346
950.361	23.4542
953.254	14.4675
956.147	2.68884
959.04	1.65271
961.932	1.01723
964.825	16.4875
967.718	33.3784
970.61	37.2189
973.503	36.2443
976.396	28.4262
979.288	37.6187
982.181	36.8946
985.074	37.2702
987.967	39.3223
990.859	48.098
993.752	26.1498
996.645	22.2684
999.537	41.5435
1002.43	35.4782
1005.32	34.4557
1008.22	47.357
1011.11	45.124
1014	70.5538
1016.89	61.2293
1019.79	57.1671
1022.68	40.2456
1025.57	42.4205
1028.46	49.2425
1031.36	33.7362
1034.25	57.0801
1037.14	41.2778
1040.04	81.2131
1042.93	103.049
1045.82	122.014
1048.71	146.345
1051.61	197.145
1054.5	230.936
1057.39	253.722
1060.28	201.238
1063.18	158.333
1066.07	77.9235
1068.96	30.3309
1071.86	17.7635
1074.75	13.001
1077.64	3.04726
1080.53	2.56421
1083.43	5.0525
1086.32	1.22297
1089.21	3.66398
1092.1	2.7647
1095	8.9946
1097.89	3.73335
1100.78	3.88862
1103.67	3.27839
1106.57	0.507571
1109.46	0.417718
1112.35	19.4431
1115.24	2.68165
1118.14	10.1852
1121.03	26.1673
1123.92	5.59425
1126.82	0.564239
1129.71	5.87708
1132.6	5.21024
1135.49	7.38148
1138.39	5.43599
1141.28	22.4222
1144.17	2.37793
1147.07	5.27443
1149.96	12.5316
1152.85	30.3258
1155.74	48.5709
1158.64	44.6824
1161.53	23.5325
1164.42	31.0797
1167.31	17.0782
1170.21	10.2684
1173.1	13.6379
1175.99	42.5485
1178.88	24.6807
1181.78	24.9429
1184.67	30.6987
1187.56	44.7358
1190.46	50.2985
1193.35	34.9331
1196.24	39.8927
1199.13	2.24099
1202.03	12.3098
1204.92	27.9738
1207.81	39.2029
1210.7	29.1334
1213.6	27.6082
1216.49	34.9906
1219.38	30.5169
1222.28	24.6156
1225.17	8.94134
1228.06	2.69718
1230.95	0.068552
1233.85	9.53992
1236.74	11.0143
1239.63	15.0695
1242.52	11.9986
1245.42	22.412
1248.31	14.2192
1251.2	33.9697
1254.1	23.6179
1256.99	30.4758
1259.88	27.2891
1262.77	12.5066
1265.67	1.99987
1268.56	6.99122
1271.45	4.36373
1274.34	22.3054
1277.24	5.26644
1280.13	10.5399
1283.02	14.5778
1285.91	18.9945
1288.81	9.87436
1291.7	22.1227
1294.59	20.9174
1297.49	18.088
1300.38	11.2444
