Measurement: Raman, 780 nm, unoriented, Raman Data Processed
Mineral: Stilpnomelane
Rruff sample: R110195
Ideal chemistry: (K,Ca,Na)(Fe^2+^,Mg,Al,Fe^3+^)_8_(Si,Al)_12_(O,OH)_36_nH_2_O
Locality: Broughton talc mine, Saint-Pierre-de-Broughton, Quebec, Canada
Source: Donald Doell
Description: Aggregates of dark green plates, 180 deg twin around (-2 0 3) = [0 1 2].
Raman shift (cm-1)	intensity
103.174	0
106.549	3.5238
109.924	8.05872
113.299	16.1303
116.674	19.1107
120.048	25.9414
123.423	35.5669
126.798	40.455
130.173	43.0649
133.548	35.6779
136.923	27.6304
140.297	19.564
143.672	7.89282
147.047	4.64734
150.422	1.24182
153.797	6.60718
157.171	10.188
160.546	13.2673
163.921	23.8812
167.296	29.4399
170.671	26.3267
174.046	25.5282
177.42	27.7237
180.795	25.4448
184.17	20.9733
187.545	17.3329
190.92	16.11
194.294	13.2516
197.669	6.2738
201.044	1.63586
204.419	0.05896
207.794	4.42004
211.168	0.296265
214.543	1.3291
217.918	1.22974
221.293	0.805176
224.668	1.51587
228.042	0.145264
231.417	0.540405
234.792	5.40088
238.167	4.93201
241.542	3.7738
244.917	3.61511
248.291	5.67725
251.666	0.05188
255.041	1.57019
258.416	1.42773
261.791	1.80981
265.166	1.44824
268.54	4.07996
271.915	2.90369
275.29	3.78845
278.665	8.2002
282.04	10.6565
285.414	12.75
288.789	17.4226
292.164	20.6379
295.539	20.7288
298.914	21.5277
302.288	22.2686
305.663	19.063
309.038	17.4225
312.413	14.5487
315.788	14.2364
319.163	8.45886
322.537	6.53589
325.912	5.15686
329.287	4.56433
332.662	2.32776
336.037	1.83142
339.411	1.44714
342.786	2.15295
346.161	1.62219
349.536	2.24853
352.911	7.55164
356.286	7.12354
359.66	4.95325
363.035	7.5802
366.41	4.7179
369.785	14.5254
373.16	8.66065
376.534	12.989
379.909	12.7253
383.284	11.8945
386.659	20.7176
390.034	22.4214
393.409	23.5903
396.783	23.4386
400.158	24.2289
403.533	21.611
406.908	22.3392
410.283	23.102
413.658	22.5701
417.032	22.0508
420.407	21.4469
423.782	22.2227
427.157	23.3038
430.532	26.1267
433.906	24.6622
437.281	20.2189
440.656	15.9141
444.031	17.233
447.406	14.3058
450.781	9.22583
454.155	10.2184
457.53	6.16516
460.905	6.85156
464.28	2.71423
467.654	1.47375
471.029	1.53491
474.404	0.699829
477.779	2.06189
481.154	3.40161
484.529	1.96106
487.903	3.64148
491.278	0.990112
494.653	1.50855
498.028	3.69482
501.403	6.95789
504.777	8.95532
508.152	8.97082
511.527	11.5244
514.902	11.7214
518.277	7.38586
521.652	8.54663
525.026	4.92334
528.401	5.34473
531.776	3.09216
535.151	6.24255
538.526	6.05542
541.9	6.04297
545.275	8.43591
548.65	5.41919
552.025	13.6731
555.4	16.1714
558.775	23.3892
562.149	32.1442
565.524	36.1356
568.899	41.522
572.274	49.936
575.649	56.7543
579.024	67.2135
582.398	74.7635
585.773	78.3923
589.148	88.57
592.523	95.4042
595.898	104.42
599.272	107.902
602.647	112.242
606.022	116.266
609.397	111.504
612.772	116.54
616.146	109.651
619.521	102.756
622.896	96.8861
626.271	91.7832
629.646	84.8922
633.021	77.2369
636.395	72.9834
639.77	67.1101
643.145	60.5542
646.52	56.6116
649.895	49.8716
653.269	40.3469
656.644	38.9163
660.019	33.3029
663.394	26.8874
666.769	24.9088
670.144	18.4843
673.518	15.2704
676.893	11.7773
680.268	5.92651
683.643	0.360779
687.018	2.18732
690.393	1.91742
693.767	3.24316
697.142	3.01489
700.517	3.38373
703.892	0.700378
707.266	2.40277
710.641	3.52753
714.016	2.08069
717.391	5.47504
720.766	6.36975
724.141	8.58337
727.515	10.5266
730.89	14.321
734.265	13.5637
737.64	15.445
741.015	12.619
744.389	13.2104
747.764	14.2509
751.139	17.3887
754.514	12.7726
757.889	10.7017
761.264	11.4537
764.638	6.39221
768.013	7.43561
771.388	5.50745
774.763	5.66589
778.138	4.83118
781.513	8.84442
784.887	6.69983
788.262	7.94415
791.637	7.03973
795.012	11.2577
798.387	8.81635
801.761	4.88153
805.136	8.15143
808.511	5.38477
811.886	0.544983
815.261	4.70325
818.635	3.87195
822.01	4.59155
825.385	2.3902
828.76	0.474121
832.135	1.40546
835.51	0.149109
838.884	4.40277
842.259	3.42975
845.634	1.26416
849.009	1.20068
852.384	0.563599
855.759	0.012085
859.133	1.60913
862.508	4.19849
865.883	2.65894
869.258	1.27472
872.633	6.31073
876.007	4.35529
879.382	3.45612
882.757	5.03449
886.132	4.88989
889.507	5.0741
892.881	4.55231
896.256	1.87134
899.631	4.55853
903.006	3.33112
906.381	4.30823
909.756	3.15228
913.13	5.68982
916.505	4.96594
919.88	6.15662
923.255	4.72595
926.63	4.7149
930.005	5.6524
933.379	6.37604
936.754	6.73987
940.129	5.84619
943.504	4.28461
946.879	3.63721
950.253	6.57666
953.628	5.9577
957.003	5.6825
960.378	4.39905
963.753	3.75244
967.127	5.38825
970.502	6.04504
973.877	1.62994
977.252	0.651733
980.627	1.82916
984.001	0.200195
987.376	0.011169
990.751	2.53308
994.126	2.78394
997.501	3.88715
1000.88	2.65228
1004.25	0.163696
1007.62	2.40753
1011	4.71436
1014.38	2.73248
1017.75	1.72638
1021.12	1.9773
1024.5	0.663635
1027.87	1.59699
1031.25	4.01257
1034.62	2.4184
1038	3.76166
1041.37	2.58502
1044.75	1.81427
1048.12	0.144043
1051.5	1.27045
1054.87	3.51465
1058.25	5.03155
1061.62	6.63641
1065	4.98651
1068.37	2.22925
1071.75	1.76831
1075.12	1.3609
1078.5	2.46576
1081.87	1.88397
1085.25	4.62396
1088.62	0.223694
1092	1.93518
1095.37	0.098267
1098.74	2.70129
1102.12	2.02722
1105.49	1.86389
1108.87	4.83069
1112.24	2.742
1115.62	0.766174
1118.99	4.38367
1122.37	3.28619
1125.74	3.79865
1129.12	2.84345
1132.49	7.13721
1135.87	5.43243
1139.24	8.92841
1142.62	7.99567
1145.99	9.87189
1149.37	9.00446
1152.74	10.1642
1156.12	8.97711
1159.49	8.47363
1162.87	9.77484
1166.24	9.48334
1169.62	9.67706
1172.99	9.26941
1176.37	6.89215
1179.74	5.98151
1183.12	3.4704
1186.49	4.98749
1189.87	4.48926
1193.24	3.65552
1196.62	7.28113
1199.99	3.5788
1203.37	5.6872
1206.74	1.36206
1210.11	2.80926
1213.49	4.11426
1216.86	1.14276
1220.24	3.99133
1223.61	4.51587
1226.99	1.44446
1230.36	1.91711
1233.74	0.239441
1237.11	2.72119
1240.49	1.46301
1243.86	1.21997
1247.24	0.297913
1250.61	0.396118
1253.99	0.928833
1257.36	3.51312
1260.74	7.94507
1264.11	6.45154
1267.49	3.72601
1270.86	5.52875
1274.24	1.47253
1277.61	3.88104
1280.98	2.02289
1284.36	1.96777
