Measurement: Raman, 532 nm, unoriented, Raman Data Processed
Mineral: Stilpnomelane
Rruff sample: R060334
Ideal chemistry: (K,Ca,Na)(Fe^2+^,Mg,Al,Fe^3+^)_8_(Si,Al)_12_(O,OH)_36_nH_2_O
Locality: Blanchard Mountain, Skagit County, Washington, USA
Source: Michael Scott
Description: Black platy radiating groups associated with quartz, 180 deg twin around [0 1 2]
Raman shift (cm-1)	intensity
228.377	0
231.27	1.2376
234.163	1.58337
237.056	2.59784
239.948	1.2616
242.841	1.16389
245.734	0.924065
248.626	1.79064
251.519	0.091713
254.412	2.07281
257.305	2.29719
260.197	1.11376
263.09	3.26423
265.983	3.04206
268.875	4.14929
271.768	6.3519
274.661	7.22139
277.553	7.62951
280.446	8.03935
283.339	7.7385
286.232	8.26234
289.124	6.31321
292.017	7.4959
294.91	7.67408
297.802	8.08431
300.695	7.66415
303.588	6.35542
306.481	6.29418
309.373	3.61569
312.266	3.65694
315.159	2.60857
318.051	2.11285
320.944	1.37742
323.837	2.28252
326.729	2.52985
329.622	0.266251
332.515	0.942192
335.408	1.91532
338.3	0.038177
341.193	2.03664
344.086	1.06454
346.978	0.871765
349.871	1.43779
352.764	0.566765
355.656	2.4441
358.549	2.27786
361.442	1.26744
364.334	2.7067
367.227	3.0163
370.12	1.31949
373.012	1.50139
375.905	2.00816
378.798	1.32908
381.691	1.44151
384.583	2.09245
387.476	2.24717
390.369	3.4024
393.261	1.36045
396.154	2.13222
399.047	0.654213
401.94	0.406654
404.832	2.31173
407.725	3.23182
410.618	0.976898
413.51	1.55054
416.403	1.77657
419.296	1.056
422.188	1.32009
425.081	2.06871
427.974	2.41935
430.866	2.5267
433.759	1.2822
436.652	1.75129
439.545	1.42311
442.437	2.23645
445.33	1.58018
448.223	1.99132
451.115	0.688705
454.008	0.155647
456.901	0.979935
459.793	0.573227
462.686	0.801857
465.579	0.266251
468.472	0.550774
471.364	0.121376
474.257	0.584488
477.15	0.532372
480.042	0.152832
482.935	0.68351
485.828	0.37011
488.721	0.931976
491.613	1.7619
494.506	0.760254
497.399	1.4035
500.291	1.50758
503.184	0.833847
506.077	0.219078
508.969	2.32202
511.862	2.80621
514.755	3.69214
517.648	1.02848
520.54	1.25618
523.433	1.56131
526.326	1.03197
529.218	2.54542
532.111	0.597122
535.004	1.98132
537.896	2.4695
540.789	2.68272
543.682	5.8642
546.575	4.05815
549.467	6.13864
552.36	10.1161
555.253	10.1181
558.145	12.3806
561.038	14.05
563.931	15.0362
566.823	15.5959
569.716	15.923
572.609	18.9691
575.502	19.6407
578.394	21.8743
581.287	22.5036
584.18	23.9132
587.072	22.3842
589.965	24.6874
592.858	25.1396
595.75	23.9744
598.643	23.7076
601.536	22.2202
604.428	21.1706
607.321	19.018
610.214	19.3993
613.107	15.9949
615.999	14.7088
618.892	14.7347
621.785	11.495
624.677	9.24338
627.57	7.09307
630.463	6.61514
633.356	5.03442
636.248	3.5061
639.141	2.79681
642.034	2.41434
644.926	1.67249
647.819	1.54781
650.712	0.534348
653.604	0.66069
656.497	0.583321
659.39	0.302208
662.283	0.344772
665.175	0.297066
668.068	0.66729
670.961	0.083916
673.853	1.02023
676.746	0.516197
679.639	0.276718
682.531	0.145584
685.424	0.325882
688.317	0.346512
691.21	0.409309
694.102	0.725883
696.995	0.390045
699.888	0.296684
702.78	0.182114
705.673	0.555374
708.566	0.909286
711.458	1.19385
714.351	1.30727
717.244	1.01166
720.136	1.29185
723.029	1.3589
725.922	1.7384
728.815	1.54702
731.707	1.59121
734.6	1.57454
737.493	2.31635
740.385	1.10936
743.278	0.800327
746.171	2.19222
749.063	1.58902
751.956	1.3436
754.849	2.28051
757.742	1.71491
760.634	0.951748
763.527	0.520531
766.42	0.854267
769.312	0.524765
772.205	0.583935
775.098	1.61553
777.99	0.867859
780.883	1.22395
783.776	1.00472
786.669	1.79992
789.561	0.688133
792.454	1.02674
795.347	1.21366
798.239	0.194035
801.132	2.0743
804.025	1.35114
806.918	1.41599
809.81	1.80212
812.703	0.669003
815.596	1.54786
818.488	1.39008
821.381	2.01836
824.274	1.72775
827.166	1.41087
830.059	1.38504
832.952	1.95919
835.845	2.24264
838.737	1.65298
841.63	1.29584
844.523	1.99523
847.415	3.49853
850.308	2.37614
853.201	1.9455
856.093	1.7967
858.986	3.48298
861.879	2.68624
864.771	1.85178
867.664	0.533463
870.557	0.765438
873.45	1.57937
876.342	1.60847
879.235	1.10152
882.128	0.255142
885.02	1.41772
887.913	0.419983
890.806	0.897137
893.698	1.21159
896.591	1.99935
899.484	0.811153
902.377	0.729507
905.269	0.993916
908.162	1.72112
911.055	1.63156
913.947	0.68074
916.84	0.857067
919.733	1.01917
922.625	1.23658
925.518	0.530304
928.411	0.677139
931.304	0.031136
934.196	0.953743
937.089	0.866756
939.982	0.685123
942.875	0.913963
945.767	1.23871
948.66	0.083664
951.553	0.707314
954.445	0.688469
957.338	2.20325
960.231	0.988705
963.123	0.555496
966.016	0.393131
968.909	0.393826
971.802	0.824059
974.694	0.619919
977.587	0.637039
980.48	0.586868
983.372	0.558071
986.265	0.944386
989.158	1.75654
992.05	0.098358
994.943	1.10012
997.836	0.917625
1000.73	0.392849
1003.62	0.237061
1006.51	0.041641
1009.41	0.170486
1012.3	0.308945
1015.19	0.126263
1018.09	0.718819
1020.98	0.754761
1023.87	0.400448
1026.76	1.07361
1029.66	1.52335
1032.55	2.0754
1035.44	0.496708
1038.33	0.986813
1041.23	1.7401
1044.12	1.72351
1047.01	0.619835
1049.9	1.59349
1052.8	1.51844
1055.69	2.97204
1058.58	1.44982
1061.47	2.17091
1064.37	1.61393
1067.26	1.00856
1070.15	1.37365
1073.05	0.551071
1075.94	1.18411
1078.83	0.39603
1081.72	0.743713
1084.62	0.285076
1087.51	1.07629
1090.4	0.838329
1093.3	0.763927
1096.19	0.025913
1099.08	1.00632
1101.97	0.180645
1104.87	0.343548
1107.76	2.12802
1110.65	1.98907
1113.54	1.85972
1116.44	1.09794
1119.33	0.68927
1122.22	1.59471
1125.12	2.16719
1128.01	1.09966
1130.9	2.24992
1133.79	1.32909
1136.68	2.54228
1139.58	2.18056
1142.47	2.96715
1145.36	2.87703
1148.26	3.15005
1151.15	3.62475
1154.04	2.41759
1156.93	3.13495
1159.83	2.81148
1162.72	3.13083
1165.61	3.78717
1168.51	1.69529
1171.4	3.58431
1174.29	3.03531
1177.18	3.25493
1180.08	4.37213
1182.97	4.26316
1185.86	3.61167
1188.75	2.65002
1191.65	1.96354
1194.54	2.15145
1197.43	0.781704
1200.33	3.001
1203.22	1.71703
1206.11	1.78214
1209	1.59084
1211.9	1.71854
1214.79	0.001724
1217.68	0.373005
1220.57	0.583641
1223.47	1.05849
1226.36	1.9669
1229.25	0.760574
1232.14	0.86935
1235.04	1.03893
1237.93	0.019611
1240.82	0.400578
1243.71	0.128273
1246.61	0.615032
1249.5	0.261005
1252.39	0.240635
1255.29	0.113541
1258.18	0.679585
1261.07	0.289688
1263.96	0.448318
1266.86	0.524708
1269.75	0.722439
1272.64	0.452023
1275.54	0.584229
1278.43	1.38157
1281.32	1.06365
1284.21	0.222446
1287.11	0.447166
1290	1.16582
1292.89	1.03073
1295.78	0.117577
1298.68	0.611385
1301.57	0.083092
