Measurement: Raman, 780 nm, unoriented, Raman Data Processed
Mineral: Stilpnomelane
Rruff sample: R070696
Ideal chemistry: (K,Ca,Na)(Fe^2+^,Mg,Al,Fe^3+^)_8_(Si,Al)_12_(O,OH)_36_nH_2_O
Locality: Brunsjo mine, Grythyttan, Vastmanland, Sweden
Source: James Shigley
Description: Radiating black platy
Raman shift (cm-1)	intensity
114.927	0
118.302	183.057
121.677	126.158
125.051	276.731
128.426	334.158
131.801	554.519
135.176	476.83
138.551	461.176
141.925	181.81
145.3	168.92
148.675	64.9199
152.05	31.5586
155.425	161.057
158.8	316.633
162.174	381.312
165.549	195.6
168.924	427.367
172.299	202.602
175.674	479.623
179.048	212.303
182.423	287.113
185.798	286.586
189.173	306.272
192.548	417.119
195.923	313.092
199.297	433.93
202.672	233.074
206.047	215.09
209.422	58.6484
212.797	44.9258
216.172	90.1777
219.546	104.221
222.921	149.602
226.296	153.379
229.671	30.9746
233.046	32.8008
236.42	54.3672
239.795	166.572
243.17	0.931641
246.545	165.57
249.92	96.625
253.294	14.5371
256.669	5.31055
260.044	70.7969
263.419	34.8613
266.794	109.172
270.169	199.897
273.543	220.023
276.918	631.041
280.293	488.772
283.668	680.027
287.043	719.414
290.418	732.682
293.792	723.113
297.167	679.611
300.542	912.879
303.917	556.342
307.292	562.688
310.666	269.338
314.041	292.533
317.416	270.002
320.791	163.885
324.166	334.172
327.541	313.201
330.915	294.363
334.29	246.502
337.665	145.402
341.04	271.988
344.415	55.9844
347.789	181.111
351.164	253.457
354.539	384.787
357.914	306.299
361.289	315.981
364.663	416.797
368.038	576.42
371.413	300.051
374.788	341.365
378.163	400.938
381.538	373.623
384.912	368.269
388.287	449.394
391.662	391.953
395.037	507.898
398.412	485.557
401.786	487.533
405.161	562.195
408.536	647.902
411.911	566.988
415.286	527.496
418.661	553.379
422.035	630.637
425.41	471.592
428.785	623.432
432.16	343.586
435.535	239.359
438.909	331.57
442.284	249.695
445.659	263.738
449.034	87.4961
452.409	129.678
455.784	44.6758
459.158	36.582
462.533	8.93945
465.908	27.6367
469.283	24.1211
472.658	74.4297
476.033	45.3203
479.407	38.4375
482.782	146.783
486.157	86.0879
489.532	69.8125
492.907	23.6094
496.281	27.0449
499.656	152.115
503.031	138.592
506.406	345.119
509.781	310.523
513.155	281.231
516.53	239.445
519.905	352.66
523.28	251.234
526.655	261.516
530.029	273.117
533.404	317.455
536.779	309.244
540.154	368.685
543.529	453.102
546.904	486.685
550.278	738.09
553.653	681.457
557.028	1133.99
560.403	1155.14
563.778	1302.02
567.153	1416.5
570.527	1565.33
573.902	1515.77
577.277	1829.62
580.652	1987.09
584.027	2182.16
587.402	2189.22
590.776	2305.7
594.151	2323.31
597.526	2316.47
600.901	2229.46
604.276	2378.21
607.65	2170.78
611.025	2001.29
614.4	2048.56
617.775	1850.91
621.15	1780.65
624.524	1590.34
627.899	1426.42
631.274	1266.95
634.649	1112.97
638.024	950.902
641.399	933.961
644.773	857.379
648.148	741.307
651.523	720.035
654.898	542.498
658.273	404.367
661.648	420.727
665.022	314.184
668.397	227.359
671.772	10.709
675.147	147.871
678.521	45.6113
681.896	25.4434
685.271	62.123
688.646	86.1289
692.021	9.38672
695.396	117.998
698.77	19.8301
702.145	30.4102
705.52	108.885
708.895	1.6875
712.27	92.209
715.644	127.199
719.019	301
722.394	256.815
725.769	191.269
729.144	466.451
732.519	222.832
735.893	315.008
739.268	332.387
742.643	377.359
746.018	265.793
749.393	210.506
752.768	296.887
756.142	165.625
759.517	142.512
762.892	155.217
766.267	155.014
769.642	76.5449
773.016	140.565
776.391	141.656
779.766	141.152
783.141	189.223
786.516	150.494
789.891	260.603
793.265	141.805
796.64	75.625
800.015	80.043
803.39	163.228
806.765	251.174
810.139	116.598
813.514	132.098
816.889	161.185
820.264	60.1445
823.639	193.445
827.014	104.543
830.388	127.391
833.763	2.82227
837.138	126.572
840.513	37.2734
843.888	108.637
847.263	49.9492
850.637	110.992
854.012	18.2012
857.387	5.90234
860.762	48.8848
864.136	116.795
867.511	12.7402
870.886	57.1699
874.261	160.654
877.636	175.594
881.011	122.164
884.385	84.8652
887.76	240.049
891.135	125.57
894.51	81.2734
897.885	207.93
901.26	211.299
904.634	238.078
908.009	218.44
911.384	285.883
914.759	311.867
918.134	352.088
921.508	372.316
924.883	242.836
928.258	201.412
931.633	379.24
935.008	326.514
938.383	301.269
941.757	183.664
945.132	128.768
948.507	161.84
951.882	251.32
955.257	223.176
958.631	119.127
962.006	173.525
965.381	270.803
968.756	269.484
972.131	169.31
975.505	133.568
978.88	121.629
982.255	17.9043
985.63	102.865
989.005	201.41
992.38	114.611
995.755	77.2637
999.129	171.41
1002.5	8.08398
1005.88	5.60742
1009.25	59.4395
1012.63	159.748
1016	23.6074
1019.38	27.7168
1022.75	36.4062
1026.13	29.8477
1029.5	75.6836
1032.88	268.01
1036.25	161.871
1039.63	15.0723
1043	52.1445
1046.38	169.316
1049.75	287.922
1053.13	231.83
1056.5	261.361
1059.88	244.859
1063.25	50.2773
1066.63	207.619
1070	11.0859
1073.38	145.469
1076.75	90.1621
1080.12	158.941
1083.5	14.7754
1086.88	106.098
1090.25	102.117
1093.62	13.2871
1097	34.1641
1100.37	91.6875
1103.75	46.3574
1107.12	100.797
1110.5	84.8457
1113.87	93.4297
1117.25	106.512
1120.62	234.789
1124	133.947
1127.37	290.342
1130.75	342.783
1134.12	289.881
1137.5	286.658
1140.87	370.68
1144.25	402.594
1147.62	408.957
1151	288.723
1154.37	276.381
1157.75	483.49
1161.12	408.945
1164.49	494.736
1167.87	371.467
1171.24	406.578
1174.62	345.238
1177.99	363.535
1181.37	300.748
1184.74	266.967
1188.12	352.6
1191.49	186.082
1194.87	168.828
1198.24	126.959
1201.62	208.637
1204.99	160.174
1208.37	32.9922
1211.74	136.443
1215.12	104.912
1218.49	118.133
1221.87	46.6973
1225.24	13.6465
1228.62	140.67
1231.99	260.459
1235.37	96.9922
1238.74	62.3984
1242.12	0.933594
1245.49	68.1133
1248.87	176.678
1252.24	5.16406
1255.62	33.8184
1258.99	32.5547
1262.37	107.103
1265.74	150.272
1269.12	155.977
1272.49	36.1016
1275.86	116.916
1279.24	257.633
1282.61	117.537
1285.99	45.1777
