Measurement: Raman, 532 nm, unoriented, Raman Data Processed
Mineral: Stilpnomelane
Rruff sample: R070696
Ideal chemistry: (K,Ca,Na)(Fe^2+^,Mg,Al,Fe^3+^)_8_(Si,Al)_12_(O,OH)_36_nH_2_O
Locality: Brunsjo mine, Grythyttan, Vastmanland, Sweden
Source: James Shigley
Description: Radiating black platy
Raman shift (cm-1)	intensity
149.369	0
152.262	137.388
155.154	290.985
158.047	24.4131
160.94	46.8696
163.833	150.906
166.725	10.855
169.618	198.201
172.511	368.022
175.403	73.1313
178.296	199.669
181.189	272.143
184.081	175.821
186.974	242.661
189.867	25.001
192.759	273.055
195.652	220.039
198.545	176.338
201.438	66.1973
204.33	64.7124
207.223	100.283
210.116	30.7334
213.008	27.5073
215.901	95.0254
218.794	76.1514
221.686	45.3735
224.579	76.7959
227.472	172.541
230.364	62.3052
233.257	192.948
236.15	263.429
239.043	44.1133
241.935	228.642
244.828	224.453
247.721	165.549
250.613	190.89
253.506	91.061
256.399	214.845
259.291	144.589
262.184	180.958
265.077	243.04
267.97	267.761
270.862	296.142
273.755	292.815
276.648	384.011
279.54	381.081
282.433	381.921
285.326	305.802
288.219	451.049
291.111	449.616
294.004	369.815
296.897	472.437
299.789	261.627
302.682	359.415
305.575	340.89
308.467	188.016
311.36	252.391
314.253	162.176
317.146	124.086
320.038	141.262
322.931	188.342
325.824	18.8716
328.716	141.873
331.609	19.0952
334.502	76.2017
337.394	3.64502
340.287	104.871
343.18	93.5024
346.072	132.968
348.965	100.849
351.858	76.3262
354.75	150.929
357.643	196.744
360.536	98.5483
363.429	100.121
366.321	117.161
369.214	107.751
372.107	8.0835
374.999	120.201
377.892	56.7109
380.785	79.3696
383.678	136.093
386.57	132.923
389.463	46.4927
392.356	119.04
395.248	113.124
398.141	119.632
401.034	149.905
403.926	91.2481
406.819	49.9917
409.712	56.9058
412.604	98.4092
415.497	126.072
418.39	93.1401
421.283	60.3384
424.175	99.1172
427.068	162.982
429.961	123.793
432.853	7.79785
435.746	159.711
438.639	31.6699
441.531	155.54
444.424	133.856
447.317	17.5132
450.21	6.98242
453.102	42.6103
455.995	72.1824
458.888	86.6826
461.78	8.16943
464.673	25.2812
467.566	24.4048
470.459	81.7886
473.351	21.8826
476.244	42.2041
479.137	28.8169
482.029	48.7041
484.922	30.416
487.815	45.5596
490.707	21.3018
493.6	81.6479
496.493	143.817
499.385	8.96484
502.278	122.108
505.171	26.5669
508.063	77.6894
510.956	136.71
513.849	44.1948
516.742	59.5005
519.634	28.0425
522.527	27.9399
525.42	45.6006
528.312	92.6099
531.205	73.2754
534.098	109.682
536.99	130.05
539.883	101.382
542.776	255.465
545.669	246.176
548.561	415.9
551.454	447.571
554.347	513.979
557.239	507.711
560.132	565.65
563.025	575.471
565.918	546.33
568.81	624.085
571.703	759.144
574.596	843.809
577.488	907.992
580.381	865.154
583.274	950.639
586.166	986.203
589.059	863.71
591.952	907.091
594.845	946.429
597.737	950.488
600.63	821.983
603.523	724.246
606.415	826.905
609.308	695.962
612.201	691.8
615.093	642.969
617.986	642.146
620.879	509.298
623.771	452.189
626.664	348.233
629.557	271.831
632.45	266.813
635.342	177.324
638.235	111.486
641.128	87.8049
644.02	149.367
646.913	146.129
649.806	73.3418
652.698	72.085
655.591	124.807
658.484	7.37915
661.376	16.9116
664.269	96.7605
667.162	89.6553
670.055	63.1941
672.947	67.6856
675.84	21.313
678.733	74.0801
681.625	76.2398
684.518	22.3723
687.411	21.876
690.303	0.207764
693.196	57.7366
696.089	58.6411
698.982	117.327
701.874	14.2827
704.767	13.667
707.66	91.1702
710.552	89.9343
713.445	157.403
716.338	99.189
719.231	10.9976
722.123	214.91
725.016	76.2512
727.909	28.2849
730.801	76.1887
733.694	113.447
736.587	179.434
739.479	96.145
742.372	87.3264
745.265	86.3113
748.158	133.917
751.05	80.5642
753.943	84.9954
756.836	123.442
759.728	151.538
762.621	92.9951
765.514	35.2827
768.406	194.56
771.299	130.269
774.192	105.954
777.085	56.4331
779.977	37.2737
782.87	29.386
785.763	68.2905
788.655	87.8919
791.548	107.818
794.441	10.8584
797.333	151.373
800.226	66.9014
803.119	158.345
806.011	85.8442
808.904	112.966
811.797	90.2537
814.69	62.4634
817.582	14.6992
820.475	86.1233
823.368	159.89
826.26	79.0767
829.153	61.5757
832.046	86.5588
834.938	17.9868
837.831	29.0405
840.724	6.96875
843.616	44.3772
846.509	102.63
849.402	68.4307
852.295	47.416
855.187	122.363
858.08	34.7527
860.973	69.2434
863.865	85.292
866.758	75.3789
869.651	65.3718
872.543	64.4326
875.436	49.9934
878.329	103.321
881.222	50.0491
884.114	160.48
887.007	138.775
889.9	66.2446
892.792	38.0347
895.685	116.487
898.578	141.783
901.471	149.93
904.363	187.554
907.256	113.55
910.149	110.181
913.041	136.532
915.934	178.444
918.827	88.033
921.719	129.19
924.612	48.718
927.505	100.975
930.398	125.495
933.29	81.5984
936.183	99.9126
939.076	160.679
941.968	97.615
944.861	59.3003
947.754	2.63721
950.646	141.195
953.539	68.2769
956.432	104.442
959.324	87.0933
962.217	66.4673
965.11	131.817
968.003	66.2476
970.895	20.9429
973.788	112.915
976.681	40.9307
979.573	6.01196
982.466	70.6436
985.359	140.621
988.251	103.971
991.144	73.2853
994.037	30.6073
996.93	20.4457
999.822	157.241
1002.72	77.6243
1005.61	27.0385
1008.5	37.0282
1011.39	21.6051
1014.29	144.588
1017.18	26.4928
1020.07	75.4215
1022.96	97.7518
1025.86	5.75134
1028.75	49.4431
1031.64	69.5199
1034.54	139.716
1037.43	73.3107
1040.32	123.425
1043.21	156.82
1046.11	100.256
1049	92.7044
1051.89	123.289
1054.78	119.283
1057.68	54.9832
1060.57	65.1377
1063.46	200.692
1066.35	10.6392
1069.25	94.7753
1072.14	69.0156
1075.03	76.0056
1077.92	38.2205
1080.82	80.6013
1083.71	48.1521
1086.6	77.0118
1089.5	72.8624
1092.39	108.435
1095.28	107.319
1098.17	72.2613
1101.07	93.069
1103.96	104.674
1106.85	105.75
1109.74	44.9064
1112.64	117.558
1115.53	68.0109
1118.42	56.8057
1121.32	47.6337
1124.21	105.419
1127.1	91.4165
1129.99	145.683
1132.89	136.164
1135.78	122.122
1138.67	107.342
1141.56	195.491
1144.46	51.23
1147.35	114.141
1150.24	87.3967
1153.13	101.822
1156.03	101.205
1158.92	165.162
1161.81	160.891
1164.71	129.378
1167.6	131.688
1170.49	246.712
1173.38	98.0599
1176.28	55.0659
1179.17	194.716
1182.06	63.4319
1184.95	111.471
1187.85	80.8004
1190.74	46.6339
1193.63	132.924
1196.53	62.8799
1199.42	13.6199
1202.31	8.96216
1205.2	76.636
1208.1	97.2799
1210.99	18.8365
1213.88	74.822
1216.78	20.9625
1219.67	46.7152
1222.56	117.789
1225.45	78.8717
1228.35	44.7137
1231.24	60.4629
1234.13	19.6186
1237.02	101.038
1239.92	87.3991
1242.81	13.998
1245.7	54.679
1248.59	6.20166
1251.49	36.2567
1254.38	79.3811
1257.27	130.037
1260.16	45.4228
1263.06	129.849
1265.95	69.2244
1268.84	11.8047
1271.74	70.9779
1274.63	103.386
1277.52	93.6858
1280.41	67.595
1283.31	11.8044
1286.2	78.7157
1289.09	54.7216
1291.98	44.6244
1294.88	2.95471
