Measurement: Raman, 780 nm, unoriented, Raman Data Processed
Mineral: Stilpnomelane
Rruff sample: R060334
Ideal chemistry: (K,Ca,Na)(Fe^2+^,Mg,Al,Fe^3+^)_8_(Si,Al)_12_(O,OH)_36_nH_2_O
Locality: Blanchard Mountain, Skagit County, Washington, USA
Source: Michael Scott
Description: Black platy radiating groups associated with quartz, 180 deg twin around [0 1 2]
Raman shift (cm-1)	intensity
115.227	0
118.602	1.50442
121.977	6.61417
125.352	11.8192
128.726	15.2713
132.101	18.724
135.476	14.9708
138.851	16.0253
142.226	12.4356
145.601	9.38103
148.975	6.02348
152.35	4.55165
155.725	1.53136
159.1	1.00886
162.475	0.621368
165.85	1.43254
169.224	1.05279
172.599	0.587814
175.974	0.488144
179.349	3.51686
182.724	4.04457
186.098	4.33035
189.473	5.32921
192.848	4.95673
196.223	5.40692
199.598	2.24458
202.972	3.45555
206.347	2.40631
209.722	4.76979
213.097	2.41553
216.472	3.23952
219.847	1.62115
223.221	3.50371
226.596	1.79869
229.971	2.73903
233.346	3.10478
236.721	1.33859
240.095	2.58331
243.47	1.1283
246.845	2.06262
250.22	0.269302
253.595	0.9505
256.969	0.611694
260.344	0.702744
263.719	0.116272
267.094	2.06851
270.469	4.05393
273.844	3.26539
277.218	7.45139
280.593	7.66257
283.968	10.4377
287.343	12.3281
290.718	11.6667
294.092	9.601
297.467	9.78625
300.842	9.98311
304.217	8.05165
307.592	5.05557
310.967	4.17634
314.341	2.67071
317.716	1.42175
321.091	1.69533
324.466	0.503571
327.841	0.801918
331.216	0.136757
334.59	1.32091
337.965	0.974556
341.34	0.990486
344.715	1.01723
348.09	1.9373
351.464	3.85088
354.839	0.757278
358.214	5.5308
361.589	4.83218
364.964	6.76048
368.339	7.73083
371.713	7.8559
375.088	7.20287
378.463	8.29761
381.838	8.9377
385.213	8.84714
388.587	9.33471
391.962	9.34596
395.337	7.06466
398.712	10.4747
402.087	8.04267
405.462	9.28229
408.836	8.58987
412.211	8.05426
415.586	8.1776
418.961	6.98627
422.336	7.00389
425.71	7.92465
429.085	7.53074
432.46	6.94459
435.835	6.4034
439.21	4.98302
442.584	6.19384
445.959	5.05283
449.334	5.66938
452.709	3.48828
456.084	1.17951
459.459	1.70776
462.833	1.68168
466.208	0.627716
469.583	0.114761
472.958	1.85123
476.333	0.182198
479.707	2.00281
483.082	0.37719
486.457	1.04053
489.832	0.658485
493.207	1.15939
496.582	2.99198
499.956	3.02937
503.331	5.44276
506.706	6.59177
510.081	5.83677
513.456	7.59148
516.83	5.74797
520.205	7.58491
523.58	6.48338
526.955	5.03768
530.33	5.47835
533.705	6.18987
537.079	6.13835
540.454	5.71851
543.829	5.83488
547.204	6.01283
550.579	9.40179
553.953	11.9355
557.328	13.0068
560.703	13.205
564.078	15.9679
567.453	16.9213
570.827	20.5434
574.202	21.4965
577.577	24.1892
580.952	27.9197
584.327	31.0982
587.702	31.3024
591.076	34.0138
594.451	35.1385
597.826	36.8244
601.201	34.8341
604.576	33.1876
607.951	33.8939
611.325	29.9847
614.7	29.5839
618.075	26.5602
621.45	23.322
624.825	21.8405
628.199	18.2498
631.574	13.1777
634.949	11.3755
638.324	10.33
641.699	8.33513
645.073	7.97656
648.448	4.6605
651.823	4.21452
655.198	4.55228
658.573	1.91631
661.948	1.68884
665.322	0.618874
668.697	0.60569
672.072	0.706909
675.447	0.257942
678.822	0.646278
682.197	0.056404
685.571	0.929672
688.946	1.58171
692.321	0.132301
695.696	1.77163
699.071	1.1275
702.445	0.676056
705.82	1.29208
709.195	1.93965
712.57	1.87575
715.945	1.93468
719.319	3.14889
722.694	2.994
726.069	4.49753
729.444	2.39999
732.819	3.04596
736.193	3.65561
739.568	2.13339
742.943	4.28804
746.318	4.13511
749.693	3.12601
753.068	2.44774
756.442	1.85266
759.817	0.468346
763.192	1.66918
766.567	1.44189
769.942	1.36195
773.317	1.41434
776.691	1.23975
780.066	0.161591
783.441	2.51781
786.816	0.232689
790.191	1.32824
793.565	0.34922
796.94	0.562256
800.315	1.67651
803.69	0.26004
807.065	1.55153
810.439	0.704651
813.814	1.2754
817.189	0.425285
820.564	1.30193
823.939	1.23101
827.314	0.745003
830.688	0.047112
834.063	2.14561
837.438	1.31954
840.813	1.01847
844.188	0.579567
847.562	0.256569
850.937	1.01182
854.312	3.08633
857.687	1.31556
861.062	1.07583
864.437	1.32817
867.811	0.965897
871.186	0.998131
874.561	0.062096
877.936	1.11468
881.311	0.970261
884.686	0.639442
888.06	2.33073
891.435	1.32333
894.81	2.96054
898.185	1.12183
901.56	2.6049
904.934	3.06847
908.309	1.23777
911.684	3.17373
915.059	1.53402
918.434	1.90421
921.808	1.09319
925.183	1.846
928.558	2.76016
931.933	0.237892
935.308	1.28261
938.683	4.13882
942.057	1.53869
945.432	1.69593
948.807	2.68221
952.182	1.025
955.557	1.96007
958.932	3.09043
962.306	0.750774
965.681	1.05766
969.056	0.433231
972.431	2.39398
975.806	1.18249
979.18	0.692677
982.555	1.1181
985.93	1.95703
989.305	1.0596
992.68	1.42521
996.054	0.98238
999.429	0.702728
1002.8	0.019737
1006.18	0.184002
1009.55	0.985348
1012.93	0.016903
1016.3	2.26864
1019.68	0.666752
1023.05	2.68458
1026.43	1.2007
1029.8	0.265915
1033.18	1.72719
1036.55	1.48186
1039.93	0.181767
1043.3	0.868698
1046.68	2.32467
1050.05	1.41172
1053.43	2.39349
1056.8	1.13351
1060.18	0.153301
1063.55	2.34348
1066.93	0.868313
1070.3	2.63721
1073.67	0.118057
1077.05	0.673309
1080.42	0.223827
1083.8	0.730026
1087.17	1.78699
1090.55	0.109955
1093.92	0.426373
1097.3	1.0614
1100.67	0.187519
1104.05	0.811386
1107.42	0.721813
1110.8	0.830948
1114.17	2.05416
1117.55	1.75108
1120.92	2.3236
1124.3	2.05674
1127.67	2.68063
1131.05	3.12076
1134.42	3.11035
1137.8	4.53426
1141.17	2.51506
1144.55	2.73787
1147.92	5.46319
1151.3	4.04956
1154.67	2.65315
1158.05	4.93025
1161.42	4.47391
1164.8	6.16374
1168.17	5.24406
1171.55	4.32297
1174.92	4.9343
1178.3	3.86477
1181.67	5.28044
1185.04	6.63131
1188.42	4.05217
1191.79	3.88035
1195.17	1.83146
1198.54	3.02873
1201.92	3.23529
1205.29	1.66711
1208.67	2.46987
1212.04	3.15804
1215.42	2.64193
1218.79	1.46666
1222.17	0.666004
1225.54	0.940559
1228.92	2.0508
1232.29	2.31732
1235.67	0.942375
1239.04	0.620838
1242.42	1.06793
1245.79	0.441433
1249.17	2.25938
1252.54	2.0817
1255.91	0.032078
1259.29	2.28843
1262.66	0.114788
1266.04	1.32598
1269.41	0.680157
1272.79	0.145256
1276.16	1.13712
1279.54	1.22846
1282.91	0.126953
