Measurement: Raman, 532 nm, unoriented, Raman Data Processed
Mineral: Stillwellite-(Ce)
Rruff sample: R060911
Ideal chemistry: CeBSiO_5_
Locality: Dimbulah, Queensland, Australia
Source: Royal Ontario Museum
Description: Dark orange crystalline blebs intergrown with fluorapatite
Raman shift (cm-1)	intensity
185.951	0
188.844	5.89441
191.737	6.75385
194.629	1.05926
197.522	2.9787
200.415	11.7868
203.308	12.6913
206.2	19.0828
209.093	14.7321
211.986	7.19214
214.878	7.59424
217.771	4.146
220.664	9.6792
223.556	13.9709
226.449	10.3933
229.342	10.0016
232.234	7.97436
235.127	9.17792
238.02	14.0782
240.913	18.6763
243.805	23.3412
246.698	17.82
249.591	27.9737
252.483	31.6799
255.376	31.1667
258.269	30.2031
261.161	27.2888
264.054	30.7744
266.947	26.6632
269.84	24.5817
272.732	23.7156
275.625	28.6927
278.518	26.0619
281.41	32.3193
284.303	34.4778
287.196	36.3993
290.089	45.8795
292.981	48.1691
295.874	63.7511
298.767	66.3263
301.659	72.4896
304.552	70.3897
307.445	69.5681
310.337	67.5334
313.23	57.3453
316.123	41.0928
319.015	38.6262
321.908	28.1443
324.801	16.6949
327.694	14.8816
330.586	7.69275
333.479	3.67658
336.372	2.35467
339.264	1.39893
342.157	6.97626
345.05	4.17242
347.942	0.375793
350.835	0.911865
353.728	3.90381
356.621	3.4679
359.513	11.8645
362.406	13.9229
365.299	19.1146
368.191	18.9799
371.084	21.6705
373.977	17.3103
376.87	19.3623
379.762	26.3389
382.655	21.2564
385.548	31.8421
388.44	43.4243
391.333	51.7313
394.226	62.5085
397.118	74.888
400.011	91.4146
402.904	92.1813
405.796	88.5513
408.689	67.6559
411.582	53.4775
414.475	36.2477
417.367	27.7778
420.26	18.1149
423.153	8.74756
426.045	8.92902
428.938	10.9709
431.831	7.82675
434.724	8.47934
437.616	13.7375
440.509	20.0009
443.402	26.7405
446.294	37.944
449.187	52.9633
452.08	58.5307
454.972	60.8548
457.865	83.1727
460.758	96.316
463.651	116.654
466.543	131.168
469.436	130.014
472.329	114.992
475.221	89.3961
478.114	67.1991
481.007	56.594
483.899	40.3967
486.792	26.6647
489.685	23.1121
492.577	14.5902
495.47	11.8719
498.363	8.05554
501.256	4.54401
504.148	3.17963
507.041	1.02481
509.934	1.81738
512.826	2.34543
515.719	1.10644
518.612	1.16351
521.505	2.52301
524.397	0.548309
527.29	5.50467
530.183	9.60052
533.075	9.47903
535.968	6.3143
538.861	7.39563
541.753	5.74274
544.646	13.2388
547.539	9.0567
550.432	17.4634
553.324	17.5281
556.217	22.5438
559.11	21.5222
562.002	21.0659
564.895	17.6878
567.788	17.7458
570.68	16.8387
573.573	18.4893
576.466	17.4934
579.359	21.5474
582.251	18.6726
585.144	19.5847
588.037	22.2536
590.929	23.4643
593.822	21.1659
596.715	27.0851
599.607	25.8192
602.5	24.2863
605.393	22.3132
608.285	18.1921
611.178	19.4575
614.071	23.7536
616.964	20.9174
619.856	19.507
622.749	20.5023
625.642	17.9679
628.534	17.3402
631.427	20.5626
634.32	16.1866
637.212	16.4754
640.105	20.4535
642.998	22.7415
645.891	23.7301
648.783	21.9541
651.676	25.7148
654.569	23.8355
657.461	21.4741
660.354	22.9243
663.247	24.3446
666.139	19.1502
669.032	18.2744
671.925	16.0155
674.818	15.1999
677.71	12.7414
680.603	8.30992
683.496	10.7071
686.388	3.94084
689.281	1.02905
692.174	0.39267
695.067	2.44737
697.959	0.673157
700.852	1.20641
703.745	4.90974
706.637	0.628128
709.53	2.83507
712.423	2.14871
715.315	0.19722
718.208	0.931641
721.101	1.84122
723.994	2.06238
726.886	3.82663
729.779	10.4029
732.672	7.55986
735.564	3.98062
738.457	9.20055
741.35	6.36263
744.242	5.2971
747.135	9.24268
750.028	6.85472
752.92	7.69618
755.813	10.3668
758.706	7.12927
761.599	8.35651
764.491	7.7296
767.384	7.04102
770.277	7.09616
773.169	7.27281
776.062	8.34697
778.955	5.87622
781.847	9.99258
784.74	4.79669
787.633	6.08856
790.526	6.01186
793.418	5.79779
796.311	5.59544
799.204	3.89731
802.096	5.14502
804.989	1.32262
807.882	9.54361
810.774	3.30304
813.667	6.60626
816.56	1.63438
819.453	2.52107
822.345	4.04459
825.238	0.066635
828.131	0.519775
831.023	0.309891
833.916	2.24301
836.809	0.869446
839.702	1.41669
842.594	0.128372
845.487	3.48439
848.38	2.69899
851.272	0.633881
854.165	0.550705
857.058	2.03876
859.95	0.256073
862.843	6.67366
865.736	3.65628
868.629	5.95167
871.521	10.6231
874.414	14.708
877.307	17.6028
880.199	28.2194
883.092	34.6413
885.985	48.9524
888.877	60.6763
891.77	78.3017
894.663	94.4536
897.556	110.654
900.448	112.418
903.341	106.55
906.234	100.203
909.126	80.8452
912.019	65.6301
914.912	56.3329
917.804	49.6454
920.697	40.9002
923.59	34.2215
926.482	33.5259
929.375	29.5782
932.268	29.862
935.161	31.0771
938.053	23.2496
940.946	24.3969
943.839	28.6441
946.731	25.0887
949.624	24.4474
952.517	21.4979
955.409	23.9855
958.302	21.2138
961.195	24.2219
964.088	26.5079
966.98	13.7117
969.873	4.56412
972.766	0.047211
975.658	1.04974
978.551	1.84277
981.444	0.223083
984.337	3.03909
987.229	4.25732
990.122	1.25738
993.015	6.68225
995.907	6.61722
998.8	11.9141
1001.69	11.6771
1004.59	15.5251
1007.48	17.8714
1010.37	18.5109
1013.26	18.77
1016.16	18.9749
1019.05	20.2577
1021.94	20.9843
1024.83	12.955
1027.73	12.8568
1030.62	9.11482
1033.51	10.8085
1036.4	7.47087
1039.3	1.28397
1042.19	4.76811
1045.08	0.453735
1047.98	2.01009
1050.87	0.075089
1053.76	1.89516
1056.65	1.54495
1059.55	2.48929
1062.44	2.02789
1065.33	0.899918
1068.22	1.10272
1071.12	3.06493
1074.01	1.75519
1076.9	2.32799
1079.8	4.90489
1082.69	1.44511
1085.58	8.7672
1088.47	6.20433
1091.37	6.10788
1094.26	7.33926
1097.15	6.97316
1100.04	13.4022
1102.94	8.72331
1105.83	9.24251
1108.72	8.2774
1111.62	7.09849
1114.51	9.14311
1117.4	12.4591
1120.29	10.0642
1123.19	9.85431
1126.08	7.86227
1128.97	4.08141
1131.86	9.83601
1134.76	2.00656
1137.65	1.42894
1140.54	5.41303
1143.43	5.76027
1146.33	5.42075
1149.22	3.16202
1152.11	3.43138
1155.01	5.04884
1157.9	4.38214
1160.79	5.39235
1163.68	2.16026
1166.58	5.08537
1169.47	3.85471
1172.36	2.59059
1175.26	4.29814
1178.15	4.3532
1181.04	10.6547
1183.93	8.43962
1186.83	7.10106
1189.72	2.22769
1192.61	4.8055
1195.5	9.4687
1198.4	3.89674
1201.29	6.61066
1204.18	3.01625
1207.07	4.60686
1209.97	4.81589
1212.86	1.97549
1215.75	2.84668
1218.64	3.55824
1221.54	5.21336
1224.43	1.69528
1227.32	0.750076
1230.22	2.35294
1233.11	0.77005
1236	1.28023
1238.89	0.601334
1241.79	0.514526
1244.68	5.19455
1247.57	0.08812
1250.46	0.378159
1253.36	3.9642
1256.25	4.49118
1259.14	2.8629
1262.04	0.77858
1264.93	4.71065
1267.82	1.9583
1270.71	5.83084
1273.61	0.458069
1276.5	2.01625
1279.39	0.461777
1282.29	2.75812
1285.18	4.14832
1288.07	2.64104
1290.96	2.23845
1293.86	3.188
1296.75	0.919647
1299.64	0.039673
1302.53	0.44429
