Measurement: Raman, 785 nm, unoriented, Raman Data Processed
Mineral: Stishovite
Rruff sample: R070183
Ideal chemistry: SiO_2_
Locality: Synthetic
Source: P. Dera
Description: Colorless fragment
Measured chemistry: Si_1.00_O_2_
Raman shift (cm-1)	intensity
188.034	0
190.926	13.9072
193.819	177.091
196.712	320.999
199.604	496.913
202.497	804.997
205.39	1164.27
208.282	1453.29
211.175	1755.05
214.068	2667.41
216.961	3770.14
219.853	4472.87
222.746	5151.95
225.639	5945.3
228.531	9036.93
231.424	15089.9
234.317	4590.68
237.209	1654.25
240.102	1155.74
242.995	881.253
245.888	665.999
248.78	410.731
251.673	156.846
254.566	99.3223
257.458	66.5147
260.351	115.564
263.244	43.0049
266.137	136.81
269.029	23.4893
271.922	174.794
274.815	41.249
277.707	61.5928
280.6	13.9766
283.493	79.2852
286.385	91.3242
289.278	186.766
292.171	169.5
295.063	196.807
297.956	188.945
300.849	270.636
303.742	407.127
306.634	460.046
309.527	563.326
312.42	597.611
315.312	624.002
318.205	668.525
321.098	782.994
323.99	776.834
326.883	855.296
329.776	920.275
332.669	994.115
335.561	1169.33
338.454	1139.48
341.347	1178.57
344.239	1311.57
347.132	1402.03
350.025	1558.12
352.918	1662.77
355.81	1742.89
358.703	1877.34
361.596	1860.11
364.488	1785.72
367.381	1830.47
370.274	1803.08
373.166	1888.11
376.059	1820.44
378.952	1852.14
381.844	1751.44
384.737	1680.31
387.63	1659.87
390.523	1645.57
393.415	1579.06
396.308	1480.74
399.201	1467.94
402.093	1271.9
404.986	1083.52
407.879	901.532
410.772	889.417
413.664	716.019
416.557	596.25
419.45	575.59
422.342	492.603
425.235	301.728
428.128	262.9
431.02	191.339
433.913	148.86
436.806	119.7
439.699	8.91895
442.591	20.4395
445.484	33.2539
448.377	65.6787
451.269	85.9541
454.162	18.3809
457.055	139.631
459.947	54.7832
462.84	59.0898
465.733	165.444
468.625	197.175
471.518	320.81
474.411	322.56
477.304	521.914
480.196	622.463
483.089	760.92
485.982	1018.02
488.874	1124.43
491.767	1250.38
494.66	1414.7
497.553	1525.79
500.445	1449.17
503.338	1348.27
506.231	1347.61
509.123	1258.29
512.016	1197.26
514.909	1043.61
517.802	846.852
520.694	666.033
523.587	485.612
526.48	482.059
529.372	245.239
532.265	248.157
535.158	124.501
538.05	164.226
540.943	129.638
543.836	96.3135
546.729	74.1856
549.621	61.0908
552.514	0.595703
555.407	22.1396
558.299	60.3193
561.192	16.1846
564.085	72.2383
566.977	74.8897
569.87	39.9492
572.763	110.655
575.655	255.692
578.548	622.99
581.441	1070.28
584.333	2085.77
587.226	3818.28
590.119	4089.08
593.012	1049.82
595.904	272.028
598.797	168.508
601.69	3.20117
604.582	172.241
607.475	106.512
610.368	44.0176
613.26	30.0498
616.153	23.4307
619.046	36.8906
621.939	153.959
624.831	178.524
627.724	275.009
630.617	323.104
633.509	343.938
636.402	437.963
639.295	495.86
642.188	377.871
645.08	295.6
647.973	196.205
650.866	283.763
653.758	193.193
656.651	138.341
659.544	83.3857
662.436	129.036
665.329	80.4238
668.222	89.7793
671.115	30.9082
674.007	84.5996
676.9	106.061
679.793	3.43457
682.685	33.3994
685.578	38.6094
688.471	31.9951
691.363	13.3447
694.256	82.2119
697.149	57.0781
700.042	26.8965
702.934	91.8936
705.827	140.162
708.72	271.131
711.612	327.532
714.505	326.293
717.398	418.794
720.29	548.362
723.183	733.878
726.076	1002.92
728.968	1187.78
731.861	1538.41
734.754	2118.36
737.647	2945.16
740.539	4504.12
743.432	6853.98
746.325	10043.7
749.217	14033.2
752.11	17232.7
755.003	16391.3
757.895	12264
760.788	8148.7
763.681	5437.74
766.574	3764.07
769.466	2888.54
772.359	2280.46
775.252	1910.31
778.144	1648.69
781.037	1460.52
783.93	1177.09
786.822	1192.13
789.715	937.031
792.608	791.187
795.501	635.934
798.393	413.208
801.286	452.569
804.179	336.901
807.071	228.688
809.964	217.204
812.857	234.429
815.75	152.138
818.642	175.57
821.535	107.419
824.428	134.194
827.32	62.3227
830.213	80.4033
833.106	46.5962
835.998	5.44434
838.891	31.5166
841.784	2.4917
844.677	8.46533
847.569	21.3579
850.462	112.229
853.355	145.306
856.247	257.705
859.14	252.303
862.033	186.393
864.925	167.56
867.818	77.9341
870.711	25.3115
873.604	31.7065
876.496	39.8677
879.389	57.4546
882.282	160.122
885.174	124.463
888.067	260.864
890.96	317.353
893.852	304.185
896.745	398.868
899.638	435.613
902.53	352.383
905.423	442.921
908.316	455.854
911.209	395.152
914.101	465.74
916.994	330.281
919.887	230.094
922.779	278.006
925.672	254.406
928.565	232.496
931.457	162.325
934.35	290.976
937.243	211.807
940.136	72.5742
943.028	79.5005
945.921	27.458
948.814	8.86133
951.706	146.983
954.599	276.309
957.492	355.759
960.385	527.952
963.277	757.492
966.17	701.059
969.063	533.292
971.955	457.466
974.848	336.048
977.741	176.148
980.633	50.6079
983.526	88.6362
986.419	50.0918
989.312	57.6733
992.204	34.0464
995.097	1.33936
997.99	16.4717
1000.88	134.51
1003.77	45.6103
1006.67	37.8511
1009.56	108.15
1012.45	72.3428
1015.35	146.583
1018.24	166.821
1021.13	50.6006
1024.02	94.665
1026.92	163.836
1029.81	137.065
1032.7	231.036
1035.6	65.9683
1038.49	101.753
1041.38	142.997
1044.27	136.297
1047.17	74.2036
1050.06	84.8892
1052.95	95.9087
1055.84	15.0078
1058.74	139.01
1061.63	9.48145
1064.52	96.189
1067.41	39.667
1070.31	23.102
1073.2	112.129
1076.09	28.2441
1078.98	66.5723
1081.88	49.7969
1084.77	27.4985
1087.66	23.459
1090.56	73.0986
1093.45	90.5493
1096.34	155.423
1099.23	182.069
1102.13	109.661
1105.02	9.23193
1107.91	67.8428
1110.81	178.319
1113.7	125.604
1116.59	193.856
1119.48	222.474
1122.38	149.541
1125.27	192.134
1128.16	51.9883
1131.05	155.69
1133.95	51.7759
1136.84	195.561
1139.73	99.9941
1142.62	130.819
1145.52	116.727
1148.41	130.352
1151.3	98.1255
1154.19	97.5454
1157.09	135.391
1159.98	139.121
1162.87	52.3115
1165.77	194.698
1168.66	131.054
1171.55	29.7139
1174.44	39.729
1177.34	8.00391
1180.23	68.6352
1183.12	131.804
1186.02	71.8628
1188.91	90.5444
1191.8	101.709
1194.69	151.412
1197.59	77.7905
1200.48	158.402
1203.37	78.1309
1206.26	55.4277
1209.16	115.948
1212.05	34.3569
1214.94	86.8623
1217.84	82.6108
1220.73	48.144
