Measurement: Raman, 785 nm, unoriented, Raman Data Processed
Mineral: Stolzite
Rruff sample: R070552
Ideal chemistry: Pb^2+^W^6+^O_4_
Locality: Kangaloolah, Tuena, Georgiana County, New South Wales, Australia
Source: James Shigley
Description: Colorless to light tan dipyramidal crystals
Raman shift (cm-1)	intensity
157.077	0
159.969	110.504
162.862	152.007
165.755	272.639
168.647	258.992
171.54	189.154
174.433	250.192
177.326	288.082
180.218	183.339
183.111	62.3384
186.004	10.6506
188.896	41.4636
191.789	108.22
194.682	41.3098
197.574	64.2449
200.467	66.6042
203.36	81.5305
206.252	125.663
209.145	143.027
212.038	150.038
214.931	164.245
217.823	155.671
220.716	109.118
223.609	74.4802
226.501	9.99683
229.394	10.634
232.287	79.1509
235.179	29.4168
238.072	48.696
240.965	43.6709
243.858	90.0686
246.75	204.07
249.643	383.7
252.536	572.546
255.428	846.793
258.321	1116.3
261.214	1457.88
264.106	1755.47
266.999	2024.65
269.892	2297.78
272.784	2447.76
275.677	2479.53
278.57	2521.76
281.463	2453.94
284.355	2355.17
287.248	2266.96
290.141	2147.28
293.033	2019.13
295.926	1936.26
298.819	1868.87
301.712	1786.32
304.604	1699.22
307.497	1723.23
310.39	1915.23
313.282	2166.31
316.175	2398.68
319.068	2790.82
321.96	3290.44
324.853	3797.34
327.746	3745.71
330.639	2337.85
333.531	1104.82
336.424	582.362
339.317	325.696
342.209	183.669
345.102	181.852
347.995	192.041
350.887	255.505
353.78	282.904
356.673	351.154
359.565	213.393
362.458	120.675
365.351	85.739
368.244	54.7683
371.136	30.7163
374.029	83.2566
376.922	22.928
379.814	11.167
382.707	7.5603
385.6	29.7185
388.493	4.22534
391.385	32.0791
394.278	26.9819
397.171	5.33667
400.063	2.32861
402.956	20.9023
405.849	11.1816
408.741	18.0039
411.634	12.4231
414.527	0.802246
417.42	17.7815
420.312	8.16089
423.205	28.3176
426.098	18.9858
428.99	82.4998
431.883	88.8911
434.776	105.091
437.668	220.571
440.561	247.197
443.454	266.983
446.346	293.923
449.239	290.848
452.132	274.69
455.025	255.323
457.917	248.994
460.81	231.38
463.703	214.75
466.595	189.894
469.488	119.352
472.381	118.428
475.273	113.335
478.166	80.04
481.059	96.3677
483.952	59.158
486.844	45.9381
489.737	40.1036
492.63	29.3831
495.522	62.993
498.415	40.3565
501.308	51.1133
504.2	20.2368
507.093	23.1913
509.986	31.9009
512.879	14.3212
515.771	15.2192
518.664	1.1908
521.557	21.7087
524.449	6.73877
527.342	18.4436
530.235	12.0872
533.127	21.7445
536.02	0.898315
538.913	0.70813
541.806	10.8535
544.698	15.4639
547.591	35.2328
550.484	60.769
553.376	63.53
556.269	79.5972
559.162	109.058
562.054	123.722
564.947	144.027
567.84	154.15
570.732	197.619
573.625	197.204
576.518	185.515
579.411	220.223
582.303	247.292
585.196	266.508
588.089	250.151
590.981	220.452
593.874	203.632
596.767	196.195
599.659	171.276
602.552	133.122
605.445	124.996
608.338	96.7634
611.23	83.8508
614.123	74.9126
617.016	72.7563
619.908	80.5861
622.801	94.407
625.694	103.508
628.587	87.5886
631.479	121.04
634.372	128.493
637.264	139.178
640.157	172.858
643.05	157.714
645.943	180.779
648.835	183.701
651.728	156.913
654.621	147.415
657.513	122.971
660.406	111.608
663.299	90.2786
666.192	76.8946
669.084	48.125
671.977	35.8128
674.87	29.9378
677.762	14.6215
680.655	29.7059
683.548	27.2735
686.44	1.29968
689.333	6.64099
692.226	0.83078
695.119	0.50647
698.011	1.90369
700.904	5.95862
703.797	4.35342
706.689	6.04736
709.582	11.0261
712.475	0.818695
715.367	6.13742
718.26	5.16028
721.153	9.53015
724.045	13.1685
726.938	7.85989
729.831	21.1662
732.724	36.7152
735.616	66.0548
738.509	123.417
741.402	237.446
744.294	355.444
747.187	505.948
750.08	731.865
752.972	698.276
755.865	387.249
758.758	277.468
761.651	292.933
764.543	301.229
767.436	225.283
770.329	122.008
773.221	52.2653
776.114	33.0474
779.007	17.4721
781.899	7.82393
784.792	6.61046
787.685	5.78429
790.578	1.93678
793.47	3.39685
796.363	15.6472
799.256	4.63562
802.148	13.0008
805.041	17.1505
807.934	13.9924
810.827	21.3105
813.719	30.0162
816.612	35.2272
819.505	21.1949
822.397	28.5037
825.29	35.7324
828.183	29.2428
831.075	36.462
833.968	22.6909
836.861	34.0646
839.753	34.8418
842.646	33.4983
845.539	20.4024
848.432	14.7252
851.324	12.319
854.217	6.93762
857.11	2.92876
860.002	1.00821
862.895	5.7431
865.788	8.27618
868.68	6.86926
871.573	16.8471
874.466	21.8321
877.359	42.834
880.251	61.8639
883.144	102.852
886.037	180.29
888.929	330.97
891.822	788.552
894.715	1680.31
897.607	2575.24
900.5	3930.46
903.393	5963.92
906.285	5071.46
909.178	2093.9
912.071	803.526
914.964	389.105
917.856	218.197
920.749	143.193
923.642	79.7197
926.534	55.4192
929.427	15.8972
932.32	6.02689
935.212	10.5264
938.105	1.76636
940.998	6.65088
943.891	2.90964
946.783	6.28702
949.676	14.0867
952.569	0.226868
955.461	9.55704
958.354	16.8569
961.247	11.0115
964.139	20.3756
967.032	10.5586
969.925	10.0762
972.818	17.0205
975.71	21.4285
978.603	12.5045
981.496	32.8471
984.388	17.0403
987.281	34.0114
990.174	45.9117
993.067	37.5421
995.959	31.361
998.852	57.1765
1001.75	48.2972
1004.64	49.3385
1007.53	57.4004
1010.42	62.6058
1013.32	60.3963
1016.21	65.8847
1019.1	55.7495
1021.99	77.0164
1024.89	99.4683
1027.78	102.808
1030.67	99.4095
1033.56	96.9218
1036.46	112.678
1039.35	105.16
1042.24	97.979
1045.13	106.261
1048.03	83.9801
1050.92	80.8697
1053.81	83.5974
1056.71	58.1962
1059.6	56.5197
1062.49	51.3831
1065.38	38.3004
1068.28	28.3233
1071.17	4.80304
1074.06	0.815613
1076.95	11.3613
1079.85	0.498047
1082.74	14.5569
1085.63	19.2831
1088.53	32.2405
1091.42	50.654
1094.31	41.2861
1097.2	74.7502
1100.1	86.9088
1102.99	87.2335
1105.88	84.9342
1108.77	70.7784
1111.67	62.2471
1114.56	67.8804
1117.45	70.7024
1120.35	85.2366
1123.24	31.8132
1126.13	39.2779
1129.02	33.0374
1131.92	1.88623
