Measurement: Raman, 785 nm, unoriented, Raman Data Processed
Mineral: Stringhamite
Rruff sample: R060934
Ideal chemistry: CaCu^2+^SiO_4_H_2_O
Locality: Santos mine, Tierra Amarilla, Chile
Source: Bob Jenkins
Description: Azure blue crust, there is no diffraction from this material
Raman shift (cm-1)	intensity
143.223	0
146.116	69.0092
149.009	164.097
151.901	145.557
154.794	109.266
157.687	61.5457
160.579	79.3149
163.472	86.1699
166.365	140.319
169.258	180.893
172.15	172.506
175.043	136.301
177.936	113.518
180.828	84.6105
183.721	30.3289
186.614	46.1931
189.506	18.7551
192.399	13.3749
195.292	45.3497
198.185	73.9557
201.077	89.21
203.97	78.0518
206.863	80.8744
209.755	132.054
212.648	156.953
215.541	198.868
218.434	322.183
221.326	372.731
224.219	256.269
227.112	115.082
230.004	87.1222
232.897	137.323
235.79	239.166
238.682	326.704
241.575	394.875
244.468	390.903
247.361	240.049
250.253	147.599
253.146	133.463
256.039	95.9495
258.931	91.6631
261.824	128.015
264.717	150.039
267.609	112.146
270.502	105.774
273.395	144.924
276.287	119.847
279.18	47.8582
282.073	2.20825
284.966	13.1934
287.858	24.5928
290.751	35.7268
293.644	30.2942
296.536	17.4822
299.429	82.9097
302.322	119.456
305.214	134.108
308.107	144.836
311	95.3347
313.892	37.4934
316.785	25.4231
319.678	5.13696
322.571	47.5967
325.463	48.7368
328.356	30.0176
331.249	74.5647
334.141	28.3767
337.034	49.2454
339.927	64.887
342.82	48.7356
345.712	59.6431
348.605	53.2344
351.498	62.3528
354.39	83.0254
357.283	108.246
360.176	85.0898
363.068	125.677
365.961	158.596
368.854	203.156
371.747	242.927
374.639	201.79
377.532	183.372
380.425	129.183
383.317	136.74
386.21	146.776
389.103	192.98
391.995	235.456
394.888	352.789
397.781	340.183
400.673	284.987
403.566	163.518
406.459	88.8835
409.352	43.4829
412.244	60.0073
415.137	23.6714
418.03	52.2324
420.922	18.696
423.815	57.7976
426.708	31.6025
429.601	30.2983
432.493	62.1685
435.386	17.7725
438.279	23.1086
441.171	60.4502
444.064	6.10644
446.957	57.1824
449.849	5.65356
452.742	32.635
455.635	23.7927
458.527	3.37256
461.42	37.9299
464.313	14.4094
467.206	37.5225
470.098	32.9028
472.991	35.7227
475.884	47.0781
478.776	23.4233
481.669	45.0039
484.562	70.3799
487.454	99.3652
490.347	109.163
493.24	156.31
496.133	177.433
499.025	126.701
501.918	184.924
504.811	193.661
507.703	161.242
510.596	171.539
513.489	197.949
516.381	143.629
519.274	133.027
522.167	109.514
525.06	76.3223
527.952	57.271
530.845	14.7256
533.738	0.465332
536.63	0.315918
539.523	23.4873
542.416	53.2373
545.308	25.8057
548.201	82.0664
551.094	88.542
553.987	119.892
556.879	166.919
559.772	241.237
562.665	337.491
565.557	423.127
568.45	457.875
571.343	488.867
574.236	373.41
577.128	279.664
580.021	231.784
582.913	207.045
585.806	131.918
588.699	71.5273
591.592	51.6103
594.484	32.0576
597.377	3.7207
600.27	48.7373
603.162	27.3389
606.055	170.687
608.948	53.0488
611.841	54.0952
614.733	14.9849
617.626	15.7954
620.519	47.0864
623.411	24.4922
626.304	57.21
629.197	32.3852
632.089	67.1133
634.982	49.1802
637.875	84.8818
640.768	74.2661
643.66	38.2832
646.553	58.917
649.446	68.5806
652.338	67.2002
655.231	55.9902
658.124	121.972
661.016	90.3135
663.909	25.0337
666.802	20.7798
669.694	4.77783
672.587	61.0596
675.48	105.177
678.373	103.836
681.265	83.6899
684.158	55.4277
687.051	59.9629
689.943	89.2969
692.836	78.4912
695.729	28.7568
698.621	80.5996
701.514	63.0859
704.407	16.6602
707.3	24.1636
710.192	28.8525
713.085	36.124
715.978	109.46
718.87	61.0664
721.763	27.1875
724.656	71.0332
727.548	12.0264
730.441	43.4551
733.334	4.49219
736.227	32.5234
739.119	38.6416
742.012	26.7461
744.905	7.23828
747.797	47.082
750.69	43.9746
753.583	63.3379
756.476	34.4316
759.368	15.5566
762.261	24.7656
765.154	22.2812
768.046	8.89941
770.939	14.7227
773.832	44.0352
776.724	21.46
779.617	60.8926
782.51	24.4072
785.403	80.9424
788.295	147.881
791.188	69.9111
794.081	29.2539
796.973	68.6768
799.866	75.4023
802.759	63.1924
805.651	85.8242
808.544	65.2246
811.437	172.92
814.33	137.76
817.222	83.8232
820.115	171.069
823.008	214.653
825.9	200.524
828.793	111.427
831.686	163.067
834.578	137.329
837.471	73.1094
840.364	12.5127
843.256	3.01953
846.149	57.0166
849.042	128.731
851.935	137.259
854.827	249.207
857.72	203.197
860.613	272.986
863.505	203.059
866.398	113.529
869.291	88.6777
872.183	1.61231
875.076	85.249
877.969	20.9053
880.861	40.5264
883.754	96.8721
886.647	30.5498
889.54	78.2022
892.432	55.959
895.325	104.848
898.218	26.958
901.11	25.1357
904.003	86.8262
906.896	24.9482
909.788	16.0273
912.681	38.3076
915.574	9.11133
918.467	96.2217
921.359	17.8301
924.252	56.1152
927.145	18.2207
930.037	121.055
932.93	146.358
935.823	69.5391
938.716	139.006
941.608	79.7881
944.501	89.0098
947.394	110.224
950.286	198.033
953.179	308.931
956.072	319.329
958.964	263.934
961.857	310.095
964.75	122.292
967.643	123.019
970.535	171.773
973.428	139.732
976.321	202.023
979.213	265.172
982.106	171.318
984.999	105.13
987.891	69.543
990.784	72.7334
993.677	25.834
996.569	64.1973
999.462	35.8164
1002.36	132.448
1005.25	94.5654
1008.14	42.0527
1011.03	66.2656
1013.93	93.2627
1016.82	107.486
1019.71	76.6797
1022.6	145.645
1025.5	29.6338
1028.39	59.3252
1031.28	80.9688
1034.17	77.9541
1037.07	53.707
1039.96	96.0713
1042.85	67.9932
1045.74	82.4824
1048.64	13.4053
1051.53	30.2295
1054.42	69.2647
1057.32	80.1641
1060.21	63.5859
1063.1	42.7344
1065.99	34.9531
1068.89	17.123
1071.78	119.488
1074.67	51.0039
1077.57	113.998
1080.46	48.2363
1083.35	2.81641
1086.24	102.332
1089.14	76.2481
1092.03	99.8125
1094.92	75.9316
1097.81	13.8145
1100.71	118
1103.6	6.58398
1106.49	44.8203
1109.38	111.723
1112.28	141.193
1115.17	99.3867
1118.06	55.7598
1120.96	35.3105
1123.85	142.594
1126.74	180.695
1129.63	100.109
1132.53	73.2559
1135.42	35.7969
1138.31	35.3105
1141.2	37.3691
1144.1	32.7793
1146.99	165.147
1149.88	47.3984
1152.78	37.6367
1155.67	106.15
1158.56	167.336
1161.45	81.5586
1164.35	95.9805
1167.24	164.992
1170.13	183.062
1173.02	16.8945
1175.92	73.832
1178.81	118.365
1181.7	42.8594
1184.6	18.6875
1187.49	33.457
1190.38	137.912
1193.27	123.561
1196.17	37.9219
1199.06	133.588
1201.95	146.188
1204.84	155.83
1207.74	1.77539
1210.63	101.385
1213.52	91.8359
1216.41	199.795
1219.31	36.1426
1222.2	121.209
1225.09	179.703
1227.98	171.762
1230.88	164.793
1233.77	122.603
1236.66	58.7129
1239.56	51.2305
1242.45	76.8203
1245.34	11.8887
1248.23	12.4824
1251.13	141.744
1254.02	43.5508
1256.91	73.8398
1259.81	94.6953
1262.7	129.815
1265.59	0
