Measurement: Raman, 780 nm, unoriented, Raman Data Processed
Mineral: Stringhamite
Rruff sample: R110018
Ideal chemistry: CaCu^2+^SiO_4_H_2_O
Locality: Christmas mine, Gila County, Arizona, USA
Source: Bob Jenkins
Description: Deep blue platy crystals
Raman shift (cm-1)	intensity
177.38	0
180.273	1.98181
183.166	2.58118
186.058	0.301788
188.951	0.808563
191.844	2.5003
194.737	3.53406
197.629	9.41809
200.522	6.32895
203.415	14.3912
206.307	23.244
209.2	25.2267
212.093	30.9035
214.985	54.4124
217.878	74.9201
220.771	97.8135
223.663	42.4665
226.556	16.8294
229.449	15.7761
232.342	18.6013
235.234	20.9401
238.127	34.7292
241.02	41.6986
243.912	26.6685
246.805	21.9852
249.698	25.3401
252.59	21.4288
255.483	17.6357
258.376	18.9139
261.269	23.6003
264.161	26.5482
267.054	19.2967
269.947	22.4698
272.839	45.1989
275.732	19.7319
278.625	5.39313
281.517	1.24158
284.41	2.0069
287.303	17.712
290.196	5.77869
293.088	8.80499
295.981	18.1025
298.874	17.4471
301.766	22.6892
304.659	28.1498
307.552	10.7242
310.445	2.81165
313.337	0.92865
316.23	2.87134
319.123	1.66431
322.015	0.978577
324.908	0.522339
327.801	2.99139
330.693	3.85938
333.586	4.18878
336.479	5.91943
339.372	8.03693
342.264	5.90997
345.157	6.79364
348.05	3.65149
350.942	5.59711
353.835	10.4535
356.728	10.9645
359.62	11.5359
362.513	13.5859
365.406	17.8211
368.298	24.385
371.191	24.5546
374.084	23.7185
376.977	15.9413
379.869	10.3674
382.762	16.9642
385.655	19.8616
388.547	27.0774
391.44	35.6493
394.333	40.0806
397.226	35.9019
400.118	23.5775
403.011	9.87152
405.904	7.82062
408.796	4.56238
411.689	5.42084
414.582	1.40259
417.474	0.708679
420.367	2.98016
423.26	0.609009
426.152	4.58392
429.045	5.18176
431.938	6.10638
434.831	5.48675
437.723	3.36883
440.616	0.895935
443.509	4.99011
446.401	3.03961
449.294	3.84723
452.187	4.31976
455.079	4.7923
457.972	2.42145
460.865	4.64368
463.758	1.89978
466.65	5.93964
469.543	6.76929
472.436	7.31488
475.328	2.67413
478.221	1.45361
481.114	2.08191
484.007	3.03406
486.899	3.35791
489.792	9.26819
492.685	4.11841
495.577	2.95166
498.47	8.48413
501.363	1.95508
504.255	3.63733
507.148	4.99609
510.041	7.01233
512.933	8.22058
515.826	8.62695
518.719	4.56506
521.612	2.91089
524.504	2.83704
527.397	0.646973
530.29	1.59949
533.182	1.55347
536.075	2.03052
538.968	1.63831
541.861	1.38061
544.753	1.60877
547.646	3.2356
550.539	12.847
553.431	17.2694
556.324	27.4357
559.217	39.864
562.109	55.7893
565.002	71.3192
567.895	89.624
570.788	80.6288
573.68	55.8768
576.573	39.4973
579.466	20.6587
582.358	14.8563
585.251	11.2354
588.144	11.5038
591.036	7.29199
593.929	7.30164
596.822	4.75903
599.715	8.25818
602.607	6.62366
605.5	0.601318
608.393	0.630615
611.285	2.37341
614.178	2.66675
617.071	2.52405
619.963	4.52893
622.856	3.74951
625.749	5.68372
628.641	1.98901
631.534	1.84888
634.427	10.0068
637.32	2.83777
640.212	6.72864
643.105	7.87622
645.998	8.99524
648.89	6.1825
651.783	6.91431
654.676	7.09961
657.568	6.01941
660.461	3.73743
663.354	6.24524
666.247	0.829834
669.139	5.85193
672.032	4.22693
674.925	2.3634
677.817	1.0625
680.71	4.0929
683.603	5.14221
686.495	5.0343
689.388	1.83459
692.281	4.99561
695.174	3.01135
698.066	0.401001
700.959	5.1073
703.852	5.8125
706.744	11.4354
709.637	7.71167
712.53	8.32642
715.423	8.34778
718.315	4.2699
721.208	11.592
724.101	6.35303
726.993	7.93518
729.886	7.15698
732.779	18.5204
735.671	6.06213
738.564	10.2585
741.457	10.5991
744.35	8.85523
747.242	6.24146
750.135	10.3391
753.028	9.1145
755.92	3.99512
758.813	2.00659
761.706	2.97363
764.598	2.33398
767.491	3.08472
770.384	5.44141
773.277	4.70044
776.169	2.33594
779.062	4.37427
781.955	5.23877
784.847	2.57324
787.74	4.20312
790.633	11.4102
793.525	17.8452
796.418	13.907
799.311	10.8957
802.204	16.822
805.096	9.74585
807.989	20.4756
810.882	10.9287
813.774	16.7063
816.667	20.2493
819.56	30.176
822.452	31.5361
825.345	34.436
828.238	32.7173
831.131	29.1445
834.023	21.0666
836.916	16.6333
839.809	19.2339
842.701	21.644
845.594	17.7261
848.487	14.8982
851.38	33.7244
854.272	42.1902
857.165	41.6909
860.058	49.6624
862.95	31.1514
865.843	30.5254
868.736	25.3857
871.628	19.7004
874.521	13.9207
877.414	11.4253
880.307	4.27734
883.199	4.63306
886.092	17.9512
888.985	5.40601
891.877	7.57935
894.77	0.687744
897.663	2.22217
900.555	13.9839
903.448	1.2832
906.341	12.0085
909.234	19.1626
912.126	17.3103
915.019	4.55103
917.912	15.2153
920.804	5.56885
923.697	9.85449
926.59	3.5918
929.482	2.62744
932.375	18.2632
935.268	3.23608
938.16	11.9766
941.053	9.47925
943.946	0.343018
946.839	4.38281
949.731	16.0774
952.624	13.2322
955.517	24.5347
958.409	21.2405
961.302	20.1267
964.195	10.1812
967.087	18.7681
969.98	13.4387
972.873	2.45288
975.766	2.77759
978.658	10.7676
981.551	16.2398
984.444	14.72
987.336	2.14648
990.229	8.8999
993.122	11.2673
996.014	5.50659
998.907	5.41089
1001.8	1.74219
1004.69	5.29272
1007.59	21.3057
1010.48	2.22656
1013.37	8.27075
1016.26	26.356
1019.16	9.71338
1022.05	6.61914
1024.94	4.39648
1027.83	13.9207
1030.73	27.7561
1033.62	7.78809
1036.51	26.4399
1039.4	10.47
1042.3	10.1357
1045.19	18.5205
1048.08	15.4839
1050.98	15.3062
1053.87	17.21
1056.76	35.3276
1059.65	46.4917
1062.55	30.1958
1065.44	23.8374
1068.33	18.6465
1071.22	25.0347
1074.12	25.5352
1077.01	18.3584
1079.9	4.86768
1082.8	11.1099
1085.69	8.76318
1088.58	25.7871
1091.47	20.9888
1094.37	47.646
1097.26	7.80273
1100.15	9.01367
1103.04	14.1807
1105.94	3.021
1108.83	10.708
1111.72	23.6514
1114.62	1.86523
1117.51	3.09375
1120.4	0.784668
1123.29	12.6484
1126.19	18.5693
1129.08	26.311
1131.97	3.66357
1134.86	34.8276
1137.76	14.8599
1140.65	34.3955
1143.54	33.6201
1146.43	21.7471
1149.33	30.8423
1152.22	31.0259
1155.11	26.9482
1158.01	17.3936
1160.9	18.7105
1163.79	35.5327
1166.68	28.0518
1169.58	35.5513
1172.47	53.7983
1175.36	40.6694
1178.26	27.7432
1181.15	28.7842
1184.04	21.7202
1186.93	51.9053
1189.83	39.7451
1192.72	34.7695
1195.61	40.7695
1198.5	34.3169
1201.4	42.6357
1204.29	47.0063
1207.18	28.7466
1210.07	38.2856
1212.97	26.4985
1215.86	39.4477
1218.75	21.4087
1221.64	21.6846
1224.54	0.73877
1227.43	29.3359
1230.32	12.6977
1233.22	7.48975
1236.11	27.3755
1239	13.4155
1241.89	7.90918
1244.79	21.0972
1247.68	17.459
1250.57	13.4399
1253.46	3.33057
1256.36	20.624
1259.25	14.8833
1262.14	15.189
1265.04	42.6636
1267.93	35.7983
1270.82	11.3227
1273.71	16.7339
1276.61	4.31787
1279.5	14.6182
1282.39	14.5381
1285.29	15.7344
