Measurement: Raman, 785 nm, unoriented, Raman Data Processed
Mineral: Stromeyerite
Rruff sample: R060908
Ideal chemistry: Cu^1+^Ag^1+^S^2-^
Locality: Cobalt, Ontario, Canada
Source: Royal Ontario Museum
Description: Black metallic massive with conchoidal fracture
Measured chemistry: Cu_1.01_Ag_0.99_S
Raman shift (cm-1)	intensity
165.882	0
168.775	63.481
171.668	92.9512
174.56	86.668
177.453	19.0669
180.346	42.6733
183.238	26.7388
186.131	118.734
189.024	200.057
191.917	344.669
194.809	464.541
197.702	600.006
200.595	777.12
203.487	906.934
206.38	945.8
209.273	1053.28
212.165	1131.51
215.058	1276.51
217.951	1415.92
220.844	1603.39
223.736	1668.88
226.629	1668.29
229.522	1792.43
232.414	1877.99
235.307	1902.49
238.2	1931.17
241.092	2017.58
243.985	1992.3
246.878	1956.51
249.77	1873.8
252.663	1793.51
255.556	1777.31
258.449	1680.69
261.341	1576.17
264.234	1487.52
267.127	1366.14
270.019	1299.87
272.912	1133.2
275.805	1067.32
278.697	1017.04
281.59	889.858
284.483	810.673
287.376	736.749
290.268	706.39
293.161	616.026
296.054	571.36
298.946	478.485
301.839	518.998
304.732	522.105
307.625	471.937
310.517	412.373
313.41	377.566
316.303	310.465
319.195	214.216
322.088	158.407
324.981	186.033
327.873	149.366
330.766	139.939
333.659	59.0669
336.551	14.4937
339.444	14.1152
342.337	79.9038
345.23	46.9131
348.122	37.1499
351.015	34.8945
353.908	8.30859
356.8	11.688
359.693	52.3474
362.586	10.6255
365.478	20.178
368.371	27.1079
371.264	24.4414
374.157	87.2239
377.049	112.487
379.942	66.137
382.835	63.3821
385.727	76.4141
388.62	89.6028
391.513	59.0059
394.406	115.814
397.298	80.4736
400.191	113.902
403.084	65.1616
405.976	65.3943
408.869	20.832
411.762	40.0159
414.654	85.0171
417.547	79.7522
420.44	45.0354
423.332	35.583
426.225	87.5996
429.118	63.0457
432.011	51.8142
434.903	45.7952
437.796	54.8479
440.689	62.4163
443.581	72.6162
446.474	98.4993
449.367	106.799
452.26	74.8364
455.152	88.9839
458.045	37.0007
460.938	86.5854
463.83	42.7351
466.723	46.1528
469.616	48.217
472.508	85.1492
475.401	20.0154
478.294	70.3352
481.187	19.1367
484.079	16.0681
486.972	21.3782
489.865	71.154
492.757	64.022
495.65	48.7275
498.543	29.2573
501.435	44.7022
504.328	52.0791
507.221	52.0823
510.113	28.3774
513.006	47.0688
515.899	62.9087
518.792	68.7278
521.684	72.1914
524.577	43.8721
527.47	89.2712
530.362	37.791
533.255	15.24
536.148	2.16431
539.04	46.9756
541.933	79.7048
544.826	55.3862
547.719	9.66211
550.611	35.1997
553.504	22.561
556.397	41.0679
559.289	52.0767
562.182	45.8452
565.075	70.522
567.967	8.35547
570.86	26.4697
573.753	94.5654
576.646	150.7
579.538	52.3296
582.431	39.9522
585.324	27.9653
588.216	71.397
591.109	8.02832
594.002	34.207
596.894	2.71143
599.787	50.29
602.68	29.6802
605.573	34.6157
608.465	60.977
611.358	45.1626
614.251	4.18848
617.143	34.1987
620.036	86.1523
622.929	25.8418
625.822	84.8311
628.714	33.0293
631.607	40.3408
634.5	5.44434
637.392	38.5679
640.285	41.9082
643.178	46.7319
646.07	57.5566
648.963	39.1245
651.856	14.7759
654.749	39.6792
657.641	45.6069
660.534	29.1792
663.427	15.8911
666.319	20.5156
669.212	19.2222
672.105	40.0913
674.997	23.2373
677.89	67.939
680.783	82.6606
683.676	0.868652
686.568	64.5371
689.461	24.3418
692.354	41.3135
695.246	28.1069
698.139	36.9722
701.032	46.7256
703.924	81.3311
706.817	23.5498
709.71	33.4966
712.602	22.5049
715.495	10.1367
718.388	60.6631
721.281	112.226
724.173	36.3013
727.066	65.79
729.959	14.6152
732.851	85.5791
735.744	84.5161
738.637	21.9936
741.529	77.3882
744.422	56.481
747.315	94.0112
750.208	98.9336
753.1	33.0747
755.993	55.854
758.886	72.7832
761.778	90.8335
764.671	35.458
767.564	33.8423
770.457	109.245
773.349	61.3682
776.242	68.9331
779.135	83.7275
782.027	68.7373
784.92	80.561
787.813	90.9297
790.705	112.909
793.598	73.9385
796.491	80.689
799.384	5.40332
802.276	16.8189
805.169	28.4468
808.062	17.6865
810.954	57.7178
813.847	81.5254
816.74	33.4502
819.632	45.9136
822.525	50.6753
825.418	9.19141
828.311	84.4561
831.203	68.5684
834.096	34.0395
836.989	50.4531
839.881	13.8516
842.774	1.88916
845.667	47.9067
848.559	47.8735
851.452	97.9209
854.345	5.3418
857.238	0.695313
860.13	57.0996
863.023	29.8027
865.916	20.667
868.808	4.72949
871.701	74.4951
874.594	55.5845
877.486	62.4536
880.379	48.0635
883.272	34.2734
886.165	10.2559
889.057	31.6006
891.95	14.6685
894.843	48.4253
897.735	38.5679
900.628	9.9331
903.521	46.8315
906.413	47.3355
909.306	104.175
912.199	93.4424
915.092	38.2725
917.984	20.0972
920.877	28.186
923.77	6.98584
926.662	45.6797
929.555	93.813
932.448	66.7324
935.341	89.5903
938.233	74.7144
941.126	68.4316
944.019	61.5742
946.911	63.2295
949.804	73.1562
952.697	52.7754
955.589	64.4268
958.482	69.2275
961.375	32.4023
964.268	68.1406
967.16	27.9531
970.053	65.7285
972.946	11.2168
975.838	75.0322
978.731	89.0957
981.624	49.7148
984.516	47.5527
987.409	1.33106
990.302	53.2217
993.194	46.8897
996.087	25.5381
998.98	44.7178
1001.87	58.582
1004.76	40.5723
1007.66	22.6982
1010.55	69.4258
1013.44	49.8379
1016.34	58.4902
1019.23	27.7432
1022.12	60.6826
1025.01	19.8691
1027.91	99.9736
1030.8	92.4492
1033.69	26.7031
1036.59	114.417
1039.48	64.6865
1042.37	47.4805
1045.26	63.919
1048.16	129.59
1051.05	89.1689
1053.94	57.4268
1056.83	36.207
1059.73	69.79
1062.62	56.1572
1065.51	20.5381
1068.4	3.35156
1071.3	78.0186
1074.19	72.7197
1077.08	118.013
1079.98	62.9326
1082.87	68.3096
1085.76	1.95996
1088.65	63.9443
1091.55	70.5586
1094.44	167.094
1097.33	134.029
1100.22	110.385
1103.12	25.9365
1106.01	13.0049
1108.9	58.6738
1111.8	53.4639
1114.69	157.168
1117.58	139.538
1120.47	116.984
1123.37	65.3232
1126.26	48.8613
1129.15	135.126
1132.04	93.1738
1134.94	94.7334
1137.83	77.6543
1140.72	85.4346
1143.62	8.9209
1146.51	40.5586
1149.4	21.5938
1152.29	94.0859
1155.19	22.3633
1158.08	78.4336
1160.97	95.7559
1163.86	119.882
1166.76	99.1943
1169.65	13.6963
1172.54	52.9951
1175.43	156.223
1178.33	104.133
1181.22	84.2246
1184.11	119.955
1187.01	41.7461
1189.9	131.403
1192.79	29.6582
1195.68	119.959
1198.58	113.738
1201.47	88.6357
1204.36	47.9072
1207.25	35.1602
1210.15	11.292
1213.04	95.5273
1215.93	65.7637
1218.83	123.566
1221.72	114.655
1224.61	244.947
1227.5	151.048
1230.4	115.847
1233.29	92.0273
1236.18	76.1924
1239.07	158.168
1241.97	67.9902
1244.86	209.66
1247.75	9.35547
1250.64	135.346
1253.54	37.6035
1256.43	51.5488
1259.32	115.799
1262.22	128.879
1265.11	70.7188
1268	51.5742
