Measurement: Raman, 780 nm, unoriented, Raman Data Processed
Mineral: Strontioginorite
Rruff sample: R110149
Ideal chemistry: SrCaB_14_O_20_(OH)_6_5H_2_O
Locality: Potash Corporation of Saskatchewan mine, Penobsquis, Kings County, New Brunswick, Canada
Source: Donald M Doell and Brian Roulston
Description: Colorless elongated tetragonal prisms, extracted by dissolving the matrix of sylvite/halite, associated with howlite R110150, volkovskite R110151, ruitenbergite R110152, congolite R110153, and hilgardite
Raman shift (cm-1)	intensity
121.977	3.79102
125.352	59.3643
128.726	43.1084
132.101	0.722656
135.476	2.48926
138.851	24.9912
142.226	84.3311
145.601	132.667
148.975	124.542
152.35	45.0889
155.725	13.5693
159.1	10.8184
162.475	0.697266
165.85	11.7363
169.224	20.2402
172.599	48.3691
175.974	115.414
179.349	184.596
182.724	214.683
186.098	221.791
189.473	204.956
192.848	205.718
196.223	183.06
199.598	164.967
202.972	169.587
206.347	182.718
209.722	178.554
213.097	146.099
216.472	153.124
219.847	125.407
223.221	133.898
226.596	103.231
229.971	69.9375
233.346	40.1582
236.721	44.1123
240.095	69.1006
243.47	64.8809
246.845	92.1348
250.22	116.531
253.595	99.5273
256.969	70.0322
260.344	37.8408
263.719	28.208
267.094	19.6592
270.469	16.0615
273.844	9.47266
277.218	15.2275
280.593	6.34082
283.968	11.6475
287.343	13.6435
290.718	29.6816
294.092	28.6934
297.467	29.3389
300.842	28.0508
304.217	33.7559
307.592	49.7373
310.967	70.8623
314.341	67.4394
317.716	46.5684
321.091	67.9228
324.466	75.7647
327.841	85.5742
331.216	53.2441
334.59	23.4639
337.965	1.82227
341.34	0.785156
344.715	11.1533
348.09	20.0088
351.464	35.6074
354.839	67.1846
358.214	91.2148
361.589	115.569
364.964	150.263
368.339	218.527
371.713	315.882
375.088	287.387
378.463	166.498
381.838	70.4404
385.213	25.2051
388.587	4.03613
391.962	11.251
395.337	13.8652
398.712	6.57812
402.087	11.0586
405.462	32.2432
408.836	64.9707
412.211	72.1553
415.586	67.9922
418.961	97.2529
422.336	179.525
425.71	119.63
429.085	24.3115
432.46	25.6445
435.835	36.1543
439.21	71.8936
442.584	186.326
445.959	276.172
449.334	313.297
452.709	234.951
456.084	101.707
459.459	64.0244
462.833	81.9014
466.208	54.2822
469.583	51.6074
472.958	31.6162
476.333	26.2148
479.707	19.7344
483.082	60.6113
486.457	88.1084
489.832	130.522
493.207	87.0234
496.582	44.2246
499.956	16.001
503.331	19.9375
506.706	18.7363
510.081	1.02637
513.456	12.8955
516.83	14.7852
520.205	0.508789
523.58	8.58301
526.955	24.7207
530.33	31.7178
533.705	31.8408
537.079	33.2412
540.454	20.1602
543.829	6.28711
547.204	9.68359
550.579	3.15918
553.953	23.127
557.328	19.6143
560.703	6.91504
564.078	0.152344
567.453	9.85938
570.827	6.42285
574.202	6.75195
577.577	15.0732
580.952	45.6533
584.327	46.5469
587.702	32.5068
591.076	37.9033
594.451	58.7725
597.826	77.3623
601.201	107.136
604.576	165.353
607.951	235.477
611.325	245.823
614.7	196.114
618.075	130.891
621.45	106.657
624.825	123.208
628.199	124.861
631.574	130.029
634.949	161.658
638.324	150.25
641.699	190.45
645.073	233.103
648.448	262.258
651.823	203.683
655.198	112.409
658.573	82.1533
661.948	74.0527
665.322	68.2422
668.697	72.5147
672.072	53.5742
675.447	39.2627
678.822	16.9717
682.197	2.48535
685.571	21.3047
688.946	27.3135
692.321	9.24902
695.696	10.9238
699.071	15.2178
702.445	3.11426
705.82	5.44824
709.195	46.0381
712.57	31.0918
715.945	41.706
719.319	46.2773
722.694	50.4355
726.069	82.7466
729.444	117.89
732.819	184.624
736.193	262.812
739.568	345.939
742.943	238.83
746.318	87.583
749.693	45.4155
753.068	9.99365
756.442	0.081543
759.817	10.7246
763.192	8.79297
766.567	8.65283
769.942	58.5283
773.317	186.631
776.691	270.725
780.066	182.228
783.441	96.936
786.816	51.9385
790.191	21.7495
793.565	33.6006
796.94	41.3359
800.315	43.4575
803.69	24.7036
807.065	56.04
810.439	53.9937
813.814	41.7134
817.189	95.332
820.564	126.363
823.939	178.707
827.314	257.194
830.688	254.19
834.063	142.129
837.438	91.6333
840.813	81.1343
844.188	40.0967
847.562	76.9741
850.937	76.689
854.312	67.4307
857.687	83.5967
861.062	85.4141
864.437	93.1504
867.811	81.0449
871.186	58.5381
874.561	53.5962
877.936	51.5171
881.311	26.9932
884.686	24.5713
888.06	23.9619
891.435	12.6343
894.81	13.6675
898.185	6.28027
901.56	11.1318
904.934	5.53564
908.309	2.54053
911.684	2.19824
915.059	1.08301
918.434	14.2881
921.808	19.6211
925.183	3.70459
928.558	16.1069
931.933	17.3936
935.308	19.9756
938.683	35.8496
942.057	42.0181
945.432	33.102
948.807	31.7017
952.182	41.4404
955.557	33.5391
958.932	21.9229
962.306	16.1582
965.681	8.19678
969.056	5.23242
972.431	10.647
975.806	1.68408
979.18	14.873
982.555	15.2124
985.93	23.979
989.305	41.499
992.68	37.669
996.054	39.8101
999.429	68.6499
1002.8	110.283
1006.18	174.014
1009.55	200.975
1012.93	165.965
1016.3	127.237
1019.68	96.4648
1023.05	71.4146
1026.43	60.7007
1029.8	48.2715
1033.18	55.9502
1036.55	65.959
1039.93	41.4214
1043.3	24.2632
1046.68	25.1377
1050.05	29.3901
1053.43	16.8833
1056.8	26.022
1060.18	31.7656
1063.55	13.3433
1066.93	26.8608
1070.3	33.0859
1073.67	19.2617
1077.05	19.9673
1080.42	10.5791
1083.8	8.3999
1087.17	20.8901
1090.55	11.5366
1093.92	22.9443
1097.3	15.7144
1100.67	12.4614
1104.05	10.4492
1107.42	13.7109
1110.8	19.1562
1114.17	2.03857
1117.55	5.22266
1120.92	6.36377
1124.3	37.585
1127.67	0.477051
1131.05	6.24609
1134.42	15.0327
1137.8	10.8164
1141.17	17.8545
1144.55	28.0249
1147.92	36.02
1151.3	32.9893
1154.67	40.4795
1158.05	58.9053
1161.42	57.6719
1164.8	83.2012
1168.17	70.0532
1171.55	74.2451
1174.92	73.0171
1178.3	70.1733
1181.67	44.5469
1185.04	56.1855
1188.42	57.2627
1191.79	39.0552
1195.17	24.2686
1198.54	24.8276
1201.92	35.2012
1205.29	9.20703
1208.67	9.95117
1212.04	21.2402
1215.42	24.6694
1218.79	12.2363
1222.17	6.20947
1225.54	4.33496
1228.92	39.3569
1232.29	34.1489
1235.67	34.6489
1239.04	21.1367
1242.42	0.445801
1245.79	20.8843
1249.17	9.41357
1252.54	4.53076
1255.91	4.86279
1259.29	12.6294
1262.66	15.8579
1266.04	15.1968
1269.41	20.1895
1272.79	19.4644
1276.16	6.70166
1279.54	12.6216
1282.91	18.8257
