Measurement: Raman, 780 nm, unoriented, Raman Data Processed
Mineral: Strontiodresserite
Rruff sample: R070741
Ideal chemistry: SrAl_2_(CO_3_)_2_(OH)_4_H_2_O
Locality: Francon quarry, St. Michel District, Montréal, Jacques Cartier Co., Québec, Canada
Source: Michael Scott
Description: Pearly white spheres or as radiating aggregates in vugs, associated with dawsonite and calcite
Raman shift (cm-1)	intensity
160.986	0
163.878	0.530273
166.771	59.814
169.664	107.145
172.556	219.327
175.449	341.361
178.342	493.757
181.234	880.953
184.127	932.096
187.02	710.161
189.912	626.06
192.805	587.961
195.698	548.541
198.591	653.173
201.483	828.69
204.376	1189.89
207.269	1248.47
210.161	1269.22
213.054	1476.26
215.947	1524.47
218.839	1437.75
221.732	1101.78
224.625	776.537
227.518	678.989
230.41	704.22
233.303	824.637
236.196	1090.12
239.088	1439.05
241.981	1520.09
244.874	986.907
247.767	409.71
250.659	198.001
253.552	51.6929
256.445	19.2251
259.337	22.2583
262.23	8.22119
265.123	6.94873
268.015	32.4663
270.908	26.3809
273.801	43.8662
276.693	32.9653
279.586	146.204
282.479	66.4644
285.372	73.7031
288.264	133.745
291.157	114.812
294.05	186.322
296.942	361.29
299.835	261.726
302.728	244.302
305.62	358.012
308.513	319.448
311.406	325.96
314.299	397.001
317.191	450.813
320.084	430.574
322.977	327.319
325.869	368.477
328.762	280.658
331.655	148.407
334.548	51.6929
337.44	50.999
340.333	9.16797
343.226	9.51953
346.118	1.25635
349.011	11.3916
351.904	16.9321
354.796	61.9307
357.689	111.815
360.582	42.0762
363.474	34.8867
366.367	68.4199
369.26	112.966
372.153	128.462
375.045	100.968
377.938	128.194
380.831	75.8901
383.723	42.6899
386.616	80.4556
389.509	6.53564
392.401	39.6782
395.294	54.062
398.187	10.7788
401.08	5.45947
403.972	4.19043
406.865	35.9907
409.758	17.7119
412.65	93.1255
415.543	13.9878
418.436	83.4321
421.329	26.5957
424.221	42.165
427.114	57.6416
430.007	103.412
432.899	158.318
435.792	75.0781
438.685	70.6431
441.577	119.26
444.47	10.1274
447.363	24.2285
450.255	17.3867
453.148	31.9355
456.041	55.7212
458.934	81.8374
461.826	66.4404
464.719	65.4331
467.612	98.9961
470.504	79.5312
473.397	44.8301
476.29	69.5107
479.182	80.0439
482.075	126.918
484.968	99.042
487.861	102.131
490.753	4.14746
493.646	35.8975
496.539	0.751953
499.431	18.5806
502.324	34.582
505.217	5.73877
508.109	74.1763
511.002	23.1489
513.895	28.4355
516.788	8.62109
519.68	15.5073
522.573	24.5771
525.466	71.9116
528.358	35.7334
531.251	8.81982
534.144	56.1836
537.036	64.7251
539.929	108.121
542.822	61.6494
545.715	69.1362
548.607	122.131
551.5	169.449
554.393	230.406
557.285	302.379
560.178	366.056
563.071	451.277
565.963	569.828
568.856	583.034
571.749	543.086
574.641	525.932
577.534	423.956
580.427	347.111
583.32	233.831
586.212	210.301
589.105	133.146
591.998	115.874
594.89	100.602
597.783	21.5093
600.676	19.667
603.568	6.63818
606.461	71.6851
609.354	32.5815
612.247	31.9546
615.139	2.36621
618.032	36.5703
620.925	54.4106
623.817	67.4316
626.71	44.6001
629.603	69.6406
632.495	49.4399
635.388	62.1006
638.281	43.5962
641.174	15.3286
644.066	52.4815
646.959	14.0122
649.852	15.1719
652.744	35.0825
655.637	57.2524
658.53	7.53906
661.423	71.0908
664.315	37.3765
667.208	88.6748
670.101	15.6104
672.993	52.8408
675.886	53.1445
678.779	38.355
681.671	1.63867
684.564	27.3091
687.457	0.967285
690.35	38.7017
693.242	4.99707
696.135	42.5825
699.028	71.7573
701.92	123.58
704.813	162.597
707.706	127.585
710.598	206.566
713.491	210.539
716.384	152.862
719.277	191.031
722.169	129.711
725.062	101.88
727.955	145.39
730.847	143.381
733.74	197.877
736.633	162.077
739.525	215.635
742.418	227.95
745.311	271.134
748.204	341.447
751.096	344.91
753.989	259.055
756.882	151.031
759.774	124.665
762.667	88.9548
765.56	109.741
768.452	62.876
771.345	78.6853
774.238	23.7407
777.131	33.8601
780.023	27.6609
782.916	0.279297
785.809	23.2468
788.701	1.10938
791.594	2.71728
794.487	21.9817
797.38	1.80933
800.272	11.3298
803.165	31.9624
806.058	43.9932
808.95	34.5867
811.843	15.8347
814.736	15.085
817.628	62.053
820.521	47.5408
823.414	71.3352
826.307	1.60547
829.199	54.1482
832.092	59.4268
834.985	6.2854
837.877	73.001
840.77	43.4797
843.663	56.344
846.555	33.1206
849.448	38.2192
852.341	14.4287
855.233	46.3296
858.126	73.4849
861.019	53.0747
863.912	59.1885
866.804	70.97
869.697	86.2812
872.59	49.043
875.482	86.9846
878.375	83.25
881.268	113.653
884.16	75.2939
887.053	112.889
889.946	49.9075
892.838	81.2866
895.731	55.1838
898.624	32.7146
901.517	11.613
904.409	45.3789
907.302	18.3166
910.195	24.4072
913.087	16.2551
915.98	7.49463
918.873	17.4045
921.765	12.2727
924.658	3.25024
927.551	48.3543
930.444	31.4187
933.336	2.48389
936.229	1.46728
939.122	23.8555
942.014	9.29004
944.907	21.1592
947.8	51.8655
950.692	49.863
953.585	71.583
956.478	32.8445
959.371	0.970947
962.263	27.678
965.156	64.21
968.049	80.3308
970.941	29.3352
973.834	20.8374
976.727	20.6404
979.62	48.314
982.512	41.2053
985.405	37.5996
988.298	10.4509
991.19	44.6221
994.083	8.52979
996.976	29.1977
999.868	3.99927
1002.76	0.721191
1005.65	4.81567
1008.55	63.8049
1011.44	25.773
1014.33	31.9568
1017.23	29.3967
1020.12	16.7622
1023.01	66.2146
1025.9	27.6636
1028.8	29.0603
1031.69	60.9492
1034.58	32.4734
1037.47	50.4568
1040.37	25.4302
1043.26	11.9102
1046.15	57.0076
1049.04	21.4895
1051.94	2.27466
1054.83	30.1553
1057.72	82.0818
1060.62	83.7131
1063.51	93.064
1066.4	175.59
1069.29	159.041
1072.19	222.27
1075.08	330.441
1077.97	469.488
1080.86	667.387
1083.76	948.477
1086.65	1188.99
1089.54	1156.19
1092.43	995.749
1095.33	817.849
1098.22	705.704
1101.11	802.663
1104.01	884.575
1106.9	1108.89
1109.79	1153.46
1112.68	812.346
1115.58	438.034
1118.47	211.32
1121.36	159.829
1124.26	89.7917
1127.15	42.5542
1130.04	98.8865
1132.93	80.0266
1135.83	49.5251
1138.72	33.6814
1141.61	12.228
1144.5	0.927979
1147.4	12.4172
1150.29	15.8023
1153.18	9.72778
1156.07	29.9138
1158.97	23.9263
1161.86	74.9553
1164.75	29.0837
1167.64	2.08911
1170.54	40.6057
1173.43	59.6306
1176.32	29.7969
1179.22	16.8474
1182.11	1.03491
1185	25.6721
1187.89	35.2236
1190.79	37.3479
1193.68	18.5679
1196.57	62.6331
1199.46	22.7385
1202.36	50.6101
1205.25	46.2927
1208.14	80.9351
1211.04	84.175
1213.93	42.7732
1216.82	28.1748
1219.71	40.2954
1222.61	73.0823
1225.5	65.865
1228.39	83.1455
1231.28	20.7686
1234.18	67.572
1237.07	50.5347
1239.96	49.8162
1242.86	26.3328
1245.75	13.3691
1248.64	66.8909
1251.53	67.3914
1254.43	39.1948
1257.32	105.343
1260.21	45.9094
1263.1	68.3843
1266	52.294
1268.89	79.5181
1271.78	64.8875
1274.67	42.999
1277.57	6.97705
1280.46	5.65747
1283.35	23.77
1286.25	33.7105
