Measurement: Raman, 532 nm, unoriented, Raman Data Processed
Mineral: Stromeyerite
Rruff sample: R060908
Ideal chemistry: Cu^1+^Ag^1+^S^2-^
Locality: Cobalt, Ontario, Canada
Source: Royal Ontario Museum
Description: Black metallic massive with conchoidal fracture
Measured chemistry: Cu_1.01_Ag_0.99_S
Raman shift (cm-1)	intensity
144.183	0
147.075	51.139
149.968	30.1389
152.861	32.6826
155.753	32.0342
158.646	0.264404
161.539	22.8321
164.431	39.7391
167.324	12.3163
170.217	0.683838
173.109	1.22107
176.002	24.5923
178.895	14.7977
181.788	20.1719
184.68	69.9231
187.573	48.6125
190.466	57.6536
193.358	89.0068
196.251	85.5646
199.144	122.82
202.036	104.466
204.929	125.482
207.822	190.89
210.714	177.503
213.607	178.193
216.5	166.694
219.393	238.955
222.285	223.406
225.178	210.931
228.071	247.827
230.963	258.6
233.856	255.901
236.749	277.868
239.642	278.321
242.534	299.338
245.427	275.528
248.32	277.928
251.212	280.697
254.105	223.521
256.998	187.569
259.89	179.852
262.783	166.102
265.676	203.619
268.568	143.722
271.461	152.317
274.354	91.1255
277.247	76.8173
280.139	70.0049
283.032	62.5432
285.925	60.0469
288.817	54.0785
291.71	64.3166
294.603	33.1306
297.495	11.2311
300.388	27.0259
303.281	42.9419
306.174	63.319
309.066	35.6628
311.959	17.6821
314.852	60.7156
317.744	3.92957
320.637	19.1621
323.53	28.0884
326.422	36.2408
329.315	27.3285
332.208	12.17
335.101	24.4142
337.993	11.7069
340.886	4.90454
343.779	0.375366
346.671	24.1561
349.564	11.7238
352.457	0.894531
355.349	13.2526
358.242	41.5529
361.135	8.30652
364.027	23.4926
366.92	17.2906
369.813	58.3732
372.706	14.1522
375.598	32.099
378.491	34.7666
381.384	21.6553
384.276	44.0002
387.169	63.0398
390.062	63.7317
392.954	73.1284
395.847	12.6099
398.74	30.8032
401.633	29.577
404.525	45.74
407.418	18.7492
410.311	35.5832
413.203	36.1296
416.096	32.568
418.989	16.1416
421.881	2.79663
424.774	7.48498
427.667	19.9548
430.56	33.864
433.452	43.879
436.345	40.2401
439.238	16.4775
442.13	31.8037
445.023	29.8492
447.916	12.017
450.808	41.5891
453.701	26.5891
456.594	25.963
459.486	16.5532
462.379	39.6881
465.272	11.7167
468.165	37.4343
471.057	39.0468
473.95	18.9752
476.843	11.6777
479.735	12.8154
482.628	40.8935
485.521	24.2379
488.413	54.2744
491.306	41.8621
494.199	40.2349
497.092	6.43945
499.984	25.7306
502.877	34.0867
505.77	24.8511
508.662	49.8042
511.555	31.3995
514.448	28.8748
517.341	50.1891
520.233	49.3993
523.126	39.1867
526.019	45.6318
528.911	62.0804
531.804	13.8916
534.697	26.7452
537.589	44.4456
540.482	66.2047
543.375	39.442
546.268	40.5123
549.16	10.9164
552.053	29.0979
554.946	29.0787
557.838	38.3177
560.731	27.2127
563.624	27.5848
566.516	18.6787
569.409	15.3959
572.302	24.4369
575.194	32.6869
578.087	2.01135
580.98	20.131
583.872	0.279053
586.765	0.432495
589.658	5.06555
592.551	20.8374
595.443	5.0459
598.336	20.9071
601.229	47.5166
604.121	21.1759
607.014	30.1073
609.907	41.6088
612.799	31.158
615.692	34.5253
618.585	33.1217
621.477	22.1178
624.37	55.3335
627.263	51.6932
630.156	63.6773
633.048	71.8804
635.941	51.302
638.834	36.5364
641.726	14.705
644.619	17.7684
647.512	14.0814
650.404	26.6562
653.297	31.4918
656.19	28.1687
659.083	11.834
661.975	3.68005
664.868	3.04981
667.761	39.667
670.653	21.8589
673.546	19.3414
676.439	1.53064
679.332	1.81604
682.224	33.1671
685.117	40.4358
688.01	29.3638
690.902	9.19898
693.795	16.1946
696.688	13.3927
699.58	35.8492
702.473	40.6986
705.366	3.08935
708.259	12.6901
711.151	13.4845
714.044	32.2018
716.937	31.1829
719.829	47.6596
722.722	29.479
725.615	27.731
728.507	32.2117
731.4	48.3995
734.293	11.6499
737.185	40.1642
740.078	1.94385
742.971	19.0892
745.864	18.4552
748.756	19.3429
751.649	14.4784
754.542	5.28223
757.434	18.2205
760.327	11.7487
763.22	13.2999
766.112	49.1123
769.005	56.3037
771.898	18.9831
774.79	21.442
777.683	41.9536
780.576	40.6389
783.469	13.8196
786.361	34.4399
789.254	54.285
792.147	23.0936
795.039	46.2336
797.932	37.5346
800.825	6.10413
803.717	36.7707
806.61	21.0381
809.503	53.3828
812.396	33.8619
815.288	33.6344
818.181	41.906
821.074	10.4414
823.966	24.7909
826.859	47.4228
829.752	33.6876
832.644	30.1425
835.537	31.1176
838.43	53.3662
841.323	41.2644
844.215	2.56702
847.108	22.6659
850.001	40.452
852.893	59.8582
855.786	18.2789
858.679	21.4735
861.571	26.5938
864.464	33.6998
867.357	2.41614
870.25	35.9973
873.142	10.361
876.035	19.1985
878.928	38.1409
881.82	7.33167
884.713	35.1006
887.606	19.4154
890.498	17.2905
893.391	16.8541
896.284	34.4912
899.177	1.98853
902.069	29.1091
904.962	13.4587
907.855	35.1977
910.747	17.2684
913.64	13.8654
916.533	36.4305
919.425	33.3479
922.318	29.3757
925.211	25.9783
928.104	0.45752
930.996	6.87476
933.889	6.63086
936.782	41.257
939.674	23.8323
942.567	12.6447
945.46	65.9142
948.352	14.1184
951.245	38.4329
954.138	15.7974
957.03	19.7987
959.923	38.1743
962.816	24.1392
965.709	8.86658
968.601	11.5951
971.494	19.2224
974.387	6.15698
977.279	35.1875
980.172	2.59937
983.065	0.187256
985.957	27.4255
988.85	13.5773
991.743	26.1173
994.635	10.5408
997.528	1.5852
1000.42	24.2721
1003.31	17.2002
1006.21	44.5104
1009.1	24.8114
1011.99	48.6265
1014.88	42.6921
1017.78	17.0419
1020.67	32.9093
1023.56	37.474
1026.45	28.3237
1029.35	70.0386
1032.24	9.77502
1035.13	46.2731
1038.03	41.7937
1040.92	28.0891
1043.81	9.2279
1046.7	6.48425
1049.6	56.0377
1052.49	37.7106
1055.38	9.43494
1058.28	38.2615
1061.17	6.64502
1064.06	7.81531
1066.95	4.82593
1069.85	17.7351
1072.74	3.43628
1075.63	17.4128
1078.52	22.1654
1081.42	21.1686
1084.31	12.6619
1087.2	21.4122
1090.09	17.4515
1092.99	3.26355
1095.88	34.1793
1098.77	16.2701
1101.66	26.1656
1104.56	37.2263
1107.45	14.2289
1110.34	15.4209
1113.24	7.17236
1116.13	34.277
1119.02	0.352783
1121.91	57.6865
1124.81	38.6645
1127.7	49.1876
1130.59	40.4836
1133.48	93.501
1136.38	39.0619
1139.27	63.354
1142.16	32.515
1145.06	57.0741
1147.95	15.6313
1150.84	46.3011
1153.73	63.5461
1156.63	54.3949
1159.52	85.2212
1162.41	41.3679
1165.31	40.5879
1168.2	59.9115
1171.09	58.3301
1173.98	88.1894
1176.88	64.1414
1179.77	73.0239
1182.66	48.4894
1185.55	34.3389
1188.45	55.5072
1191.34	45.5336
1194.23	37.9742
1197.12	52.1718
1200.02	29.149
1202.91	42.975
1205.8	22.9083
1208.69	0.20874
1211.59	13.5809
1214.48	47.5763
1217.37	0.777466
1220.27	38.4503
1223.16	27.1226
1226.05	0.13147
1228.94	9.25574
1231.84	29.1278
1234.73	34.4928
1237.62	58.5848
1240.52	69.7162
1243.41	26.1045
1246.3	36.2418
1249.19	105.326
1252.09	5.97656
1254.98	64.882
1257.87	5.00757
1260.76	14.3632
1263.66	35.8905
1266.55	48.255
1269.44	53.5142
1272.33	34.7639
1275.23	46.1061
1278.12	56.9574
1281.01	23.4106
1283.9	10.0531
1286.8	38.3158
1289.69	18.1077
1292.58	48.3549
