Measurement: Raman, 532 nm, unoriented, Raman Data Processed
Mineral: Strontiodresserite
Rruff sample: R070741
Ideal chemistry: SrAl_2_(CO_3_)_2_(OH)_4_H_2_O
Locality: Francon quarry, St. Michel District, Montréal, Jacques Cartier Co., Québec, Canada
Source: Michael Scott
Description: Pearly white spheres or as radiating aggregates in vugs, associated with dawsonite and calcite
Raman shift (cm-1)	intensity
161.107	0
164	171.783
166.893	1.5957
169.785	152.066
172.678	271.262
175.571	445.652
178.463	1024.76
181.356	1342.94
184.249	1181.49
187.142	823.053
190.034	843.369
192.927	870.543
195.82	912.84
198.712	1020.64
201.605	1366.21
204.498	1859.85
207.39	2035.81
210.283	2168.36
213.176	2152.55
216.069	2252.14
218.961	1993.87
221.854	1496.53
224.747	1119.69
227.639	1109.32
230.532	1027.67
233.425	1210.08
236.317	1470.27
239.21	1984.77
242.103	1849.34
244.995	1135.03
247.888	517.299
250.781	209.356
253.674	36.3574
256.566	11.2051
259.459	36.6992
262.352	51.5625
265.244	101.561
268.137	256.871
271.03	246.857
273.923	203.703
276.815	106.225
279.708	155.025
282.601	89.5723
285.493	226.025
288.386	130.453
291.279	341.002
294.171	475.781
297.064	431.182
299.957	374.773
302.849	374.377
305.742	497.055
308.635	592.959
311.528	528.463
314.42	573.912
317.313	525.465
320.206	526.385
323.098	545.982
325.991	473.455
328.884	460.402
331.776	385.477
334.669	351.662
337.562	154.92
340.455	250.607
343.347	4.92969
346.24	54.9395
349.133	8.42773
352.025	76.125
354.918	240.809
357.811	110.387
360.704	106.113
363.596	201.402
366.489	65.3613
369.382	223.375
372.274	230.935
375.167	320.93
378.06	282.185
380.952	281.6
383.845	162.627
386.738	218.113
389.63	177.998
392.523	13.2031
395.416	19.7324
398.308	176.998
401.201	150.856
404.094	43.1797
406.987	116.709
409.879	29.7383
412.772	90.082
415.665	20.9688
418.557	201.623
421.45	80.2754
424.343	2.20117
427.236	181.598
430.128	129.416
433.021	322.654
435.914	296.475
438.806	75.1465
441.699	69.9492
444.592	244.889
447.484	192.266
450.377	215.775
453.27	62.0352
456.163	157.83
459.055	54.6387
461.948	95.6484
464.841	108.336
467.733	161.918
470.626	213.055
473.519	194.092
476.411	100.777
479.304	236.598
482.197	250.127
485.089	380.332
487.982	273.809
490.875	109.084
493.768	19.4062
496.66	5.26367
499.553	81.2539
502.446	143.059
505.338	151.506
508.231	24.332
511.124	4.58398
514.016	413.43
516.909	140.467
519.802	73.5879
522.695	11.5449
525.587	61.2383
528.48	34.8438
531.373	179.434
534.265	339.469
537.158	301.539
540.051	244.857
542.943	306.865
545.836	250.606
548.729	424.117
551.622	486.394
554.514	523.691
557.407	803.799
560.3	909.57
563.192	1109.41
566.085	1294.94
568.978	1282.19
571.87	1115.12
574.763	1134.94
577.656	1056.74
580.549	884.221
583.441	568.564
586.334	368.748
589.227	412.408
592.119	389.269
595.012	374.272
597.905	429.207
600.798	132.152
603.69	140.207
606.583	89.6758
609.476	18.0918
612.368	111.287
615.261	117.244
618.154	85.4746
621.046	18.1582
623.939	22.752
626.832	143.127
629.725	107.699
632.617	113.928
635.51	75.3144
638.403	102.603
641.295	46.3867
644.188	21.4062
647.081	191.412
649.973	57.1348
652.866	245.69
655.759	242.799
658.651	213.012
661.544	216.143
664.437	369.793
667.33	299.322
670.222	265.863
673.115	213.647
676.008	27.3066
678.9	103.693
681.793	248.373
684.686	219.43
687.578	82.1465
690.471	22.7207
693.364	1.59961
696.256	98.4375
699.149	135.531
702.042	163.574
704.935	129.076
707.827	290.568
710.72	372.836
713.613	570.58
716.505	420.922
719.398	215.522
722.291	366.455
725.183	290.75
728.076	313.894
730.969	203.49
733.862	194.762
736.754	187.852
739.647	269.078
742.54	355.277
745.432	410.723
748.325	440.695
751.218	435.199
754.111	339.059
757.003	332.023
759.896	112.43
762.789	166.266
765.681	145.301
768.574	249.074
771.467	210.211
774.359	199.445
777.252	144.941
780.145	134.121
783.038	136.203
785.93	56.6797
788.823	132.477
791.716	33.7812
794.608	86.5469
797.501	333.188
800.394	234.07
803.286	143.941
806.179	147.512
809.072	68.6445
811.965	66.4492
814.857	61.7344
817.75	89.7344
820.643	2.63672
823.535	103.527
826.428	120.231
829.321	160.602
832.213	105.793
835.106	6.16406
837.999	34.875
840.891	54.1328
843.784	48.8906
846.677	125.715
849.57	133.445
852.462	177.5
855.355	195.34
858.248	204.051
861.14	178.973
864.033	156.008
866.926	125.074
869.818	254.949
872.711	209.195
875.604	15.3398
878.497	217.215
881.389	314.254
884.282	267
887.175	176.508
890.067	201.309
892.96	127.32
895.853	162.566
898.745	243.352
901.638	143.066
904.531	25.1133
907.424	42.7656
910.316	67.6211
913.209	15.6328
916.102	51.4688
918.994	33.8516
921.887	88.5742
924.78	52.6758
927.673	142.859
930.565	173.652
933.458	17.9805
936.351	17.4219
939.243	123.106
942.136	116.481
945.029	24.0859
947.921	122.832
950.814	254.731
953.707	303.508
956.6	300.828
959.492	122.816
962.385	162.59
965.278	126.977
968.17	35.2227
971.063	156.676
973.956	178.231
976.848	9.63281
979.741	42.9102
982.634	99.2031
985.526	49.4258
988.419	208.906
991.312	118.617
994.205	40.5156
997.097	49.5469
999.99	286.672
1002.88	277.481
1005.77	279.391
1008.67	274.711
1011.56	2.29688
1014.45	264.375
1017.35	281.172
1020.24	292.969
1023.13	138.25
1026.02	216.441
1028.92	53.3555
1031.81	237.887
1034.7	62.5781
1037.6	95.3281
1040.49	65.2734
1043.38	105.695
1046.27	47.0352
1049.17	32.8281
1052.06	106.207
1054.95	12.3828
1057.84	63.4961
1060.74	257.5
1063.63	388.309
1066.52	444.754
1069.41	477.285
1072.31	512.891
1075.2	922.027
1078.09	1323.89
1080.98	1748.47
1083.88	2154.29
1086.77	2294.81
1089.66	2409.51
1092.56	2147.45
1095.45	1707.8
1098.34	1781.59
1101.23	2027.18
1104.13	2221.61
1107.02	2461.85
1109.91	2560.61
1112.81	1899.52
1115.7	1218.82
1118.59	564.211
1121.48	391.418
1124.38	324.609
1127.27	388.941
1130.16	403.598
1133.05	308.953
1135.95	307.961
1138.84	241.695
1141.73	204.695
1144.62	102.961
1147.52	262.094
1150.41	175.562
1153.3	264.512
1156.2	152.441
1159.09	123.59
1161.98	90.8047
1164.87	87.0117
1167.77	20.6523
1170.66	0.105469
1173.55	54.8281
1176.44	65.3047
1179.34	84.4219
1182.23	123.094
1185.12	110.969
1188.02	259.117
1190.91	320.852
1193.8	148.871
1196.69	56.6094
1199.59	0.398438
1202.48	28.3945
1205.37	118.535
1208.26	273.824
1211.16	269.859
1214.05	268.32
1216.94	203.684
1219.84	219.785
1222.73	159.832
1225.62	64.2734
1228.51	160.707
1231.41	11.4297
1234.3	157.695
1237.19	104.324
1240.08	139.652
1242.98	256.984
1245.87	318.773
1248.76	170.352
1251.65	404.461
1254.55	175.496
1257.44	295.18
1260.33	348.316
1263.23	38.1836
1266.12	87.1055
1269.01	19.457
1271.9	120.113
1274.8	238.691
1277.69	120.043
1280.58	100.629
1283.47	121.363
1286.37	19.4375
1289.26	143.305
1292.15	132.738
1295.05	151.367
1297.94	0
