Measurement: Raman, 780 nm, unoriented, Raman Data Processed
Mineral: Strunzite
Rruff sample: R050619
Ideal chemistry: Mn^2+^Fe^3+^_2_(P^5+^O_4_)_2_(OH)_2_6H_2_O
Locality: Hagendorf, Germany
Source: University of Arizona Mineral Museum
Description: Pale yellow acicular crystals
Measured chemistry: (Mn^2+^_0.52_Fe^2+^_0.43_Mg_0.05_)_Σ=1_Fe^3+^_2.00_(P_1.00_O_4_)_2_(OH)_2_·6H_2_O
Raman shift (cm-1)	intensity
115.689	0
119.064	0.988556
122.439	18.6239
125.814	17.4257
129.188	22.2031
132.563	3.74884
135.938	2.30258
139.313	2.01068
142.688	2.16812
146.062	19.314
149.437	31.0996
152.812	58.498
156.187	80.238
159.562	101.599
162.936	122.388
166.311	111.166
169.686	79.6821
173.061	63.0191
176.436	61.3055
179.811	71.3507
183.185	69.3911
186.56	72.7939
189.935	65.8118
193.31	60.5913
196.685	50.5767
200.06	39.7307
203.434	29.1169
206.809	28.404
210.184	29.6996
213.559	37.1055
216.934	43.2658
220.308	47.663
223.683	62.7141
227.058	63.8612
230.433	50.4458
233.808	31.4969
237.182	23.5985
240.557	25.2122
243.932	27.1323
247.307	31.1317
250.682	33.4509
254.056	36.659
257.431	40.5582
260.806	42.2781
264.181	46.3788
267.556	48.3233
270.931	47.3167
274.305	48.3489
277.68	38.4053
281.055	35.9501
284.43	27.1522
287.805	22.5881
291.18	19.4897
294.554	10.4812
297.929	7.53371
301.304	4.95874
304.679	0.364365
308.054	2.78357
311.428	3.86116
314.803	1.26813
318.178	1.61847
321.553	1.8747
324.928	5.48662
328.302	4.68167
331.677	0.867798
335.052	1.05956
338.427	0.717352
341.802	2.13193
345.176	1.05508
348.551	2.93668
351.926	4.59962
355.301	1.99931
358.676	5.54518
362.051	0.662201
365.425	5.93767
368.8	1.75867
372.175	0.229324
375.55	1.97432
378.925	0.933502
382.3	1.64497
385.674	4.72728
389.049	6.44635
392.424	7.71341
395.799	10.221
399.174	14.4721
402.548	16.8351
405.923	20.4165
409.298	17.7068
412.673	21.6212
416.048	28.3451
419.422	31.7069
422.797	43.611
426.172	42.0512
429.547	44.8084
432.922	48.642
436.296	51.6097
439.671	49.4504
443.046	51.7063
446.421	54.1312
449.796	59.6066
453.171	75.3613
456.545	84.1165
459.92	90.6547
463.295	94.5855
466.67	97.0843
470.045	97.5622
473.42	83.6602
476.794	70.1472
480.169	56.1876
483.544	40.8731
486.919	34.6801
490.293	20.4815
493.668	21.4885
497.043	16.4885
500.418	12.7254
503.793	6.56905
507.168	6.6449
510.542	6.9402
513.917	4.80762
517.292	1.54832
520.667	3.72417
524.042	2.01844
527.417	0.778488
530.791	1.91748
534.166	0.972084
537.541	3.71297
540.916	3.96503
544.291	5.12035
547.665	11.6001
551.04	15.9978
554.415	19.7442
557.79	23.7317
561.165	25.003
564.539	29.7561
567.914	25.1525
571.289	27.8177
574.664	23.9166
578.039	22.8808
581.413	23.9068
584.788	17.4013
588.163	10.6429
591.538	7.33632
594.913	3.68116
598.288	2.92658
601.662	2.50479
605.037	1.63186
608.412	1.89608
611.787	1.89218
615.162	0.688736
618.537	1.02506
621.911	4.72272
625.286	9.12147
628.661	7.05036
632.036	8.97199
635.41	9.2834
638.785	9.50213
642.16	11.2574
645.535	9.89272
648.91	7.30105
652.285	10.8609
655.659	9.25768
659.034	6.1119
662.409	3.38254
665.784	6.76242
669.159	2.76528
672.534	5.64401
675.908	4.26739
679.283	5.9652
682.658	0.494186
686.033	5.0772
689.408	1.55786
692.782	2.21862
696.157	3.59393
699.532	2.18727
702.907	3.2124
706.282	3.28379
709.656	0.586044
713.031	4.40422
716.406	2.52423
719.781	4.67584
723.156	4.83029
726.53	5.83433
729.905	4.58238
733.28	3.57623
736.655	1.50856
740.03	1.07695
743.405	8.49876
746.779	5.64901
750.154	0.850433
753.529	1.25074
756.904	1.39689
760.279	5.00434
763.654	5.74249
767.028	1.73039
770.403	1.89585
773.778	5.17282
777.153	2.46364
780.528	1.86106
783.902	0.533554
787.277	3.78259
790.652	6.70105
794.027	8.20657
797.402	5.89102
800.776	1.95207
804.151	5.05144
807.526	5.70781
810.901	3.80388
814.276	5.16132
817.65	8.11424
821.025	9.60488
824.4	3.83405
827.775	3.80933
831.15	8.37968
834.525	3.02546
837.899	7.56011
841.274	7.19296
844.649	10.3746
848.024	6.65201
851.399	9.93971
854.774	5.94385
858.148	7.96068
861.523	10.2062
864.898	6.61314
868.273	9.19582
871.648	9.4923
875.022	7.49015
878.397	7.8717
881.772	4.37743
885.147	9.16059
888.522	9.23649
891.896	3.90939
895.271	7.85585
898.646	2.4162
902.021	0.579903
905.396	1.94443
908.77	3.02826
912.145	1.31831
915.52	1.40903
918.895	0.808136
922.27	1.02118
925.645	2.6041
929.019	1.8847
932.394	0.588593
935.769	2.00679
939.144	1.86996
942.519	4.17176
945.894	1.42796
949.268	2.23924
952.643	5.87732
956.018	10.8127
959.393	14.2982
962.768	22.038
966.142	31.348
969.517	44.6575
972.892	57.4824
976.267	69.6439
979.642	78.7211
983.016	82.4762
986.391	84.8231
989.766	90.8602
993.141	95.4793
996.516	92.5444
999.89	90.2298
1003.26	81.3513
1006.64	68.7739
1010.01	52.8951
1013.39	37.9141
1016.76	28.8905
1020.14	22.0945
1023.51	20.7093
1026.89	16.8514
1030.26	13.2364
1033.64	13.9967
1037.01	16.9986
1040.39	18.0789
1043.76	29.9409
1047.14	32.3674
1050.51	35.5511
1053.89	34.7235
1057.26	31.642
1060.64	27.15
1064.01	17.795
1067.39	10.1137
1070.76	10.7543
1074.14	8.14447
1077.51	0.583862
1080.89	0.381302
1084.26	0.626007
1087.64	2.16048
1091.01	1.08384
1094.38	0.591698
1097.76	1.24081
1101.13	2.22975
1104.51	2.02753
1107.88	3.69447
1111.26	6.68153
1114.63	8.84458
1118.01	3.2848
1121.38	9.22807
1124.76	10.9771
1128.13	4.51887
1131.51	1.90132
1134.88	3.59018
1138.26	1.33255
1141.63	1.49752
1145.01	0.666424
1148.38	0.974514
1151.76	2.69035
1155.13	2.03577
1158.51	1.43495
1161.88	2.0322
1165.26	0.675743
1168.63	1.86102
1172.01	5.20207
1175.38	0.813141
1178.76	6.58163
1182.13	6.53944
1185.51	5.1888
1188.88	8.72019
1192.26	9.38392
1195.63	1.4208
1199.01	8.11628
1202.38	6.39691
1205.75	7.85936
1209.13	8.2055
1212.5	3.03709
1215.88	7.15234
1219.25	3.33494
1222.63	4.58905
1226	8.00549
1229.38	11.2033
1232.75	4.67627
1236.13	4.77802
1239.5	6.27424
1242.88	1.84852
1246.25	5.32415
1249.63	5.58106
1253	6.83395
1256.38	2.57647
1259.75	5.83908
1263.13	7.38806
1266.5	2.36717
1269.88	1.42851
1273.25	4.15568
1276.62	1.54625
1280	1.07083
1283.38	2.53558
