Measurement: Raman, 532 nm, unoriented, Raman Data Processed
Mineral: Struvite
Rruff sample: R050511
Ideal chemistry: (N^3-^H_4_)MgPO_4_6H_2_O
Locality: Hamburg, Germany
Source: American Museum of Natural History
Description: Colorless with a brown tint, cleavage fragment
Measured chemistry: (NH_4_)(Mg_0.85_Fe^2+^_0.12_Mn_0.02_Ca_0.01_)_Σ=1_(P_1.00_O_4_)·6H_2_O ; NH_4_ not measured but assumed by charge balance
Raman shift (cm-1)	intensity
135.022	0
138.397	826.82
141.772	3422.79
145.147	4452.67
148.522	3822.3
151.896	2777.06
155.271	2367.93
158.646	2882.47
162.021	4005.59
165.396	4160
168.77	4202.02
172.145	4665.94
175.52	5716.65
178.895	6778.6
182.27	7414.87
185.644	6801.23
189.019	5373.14
192.394	4024.08
195.769	2776.28
199.144	2195.91
202.519	1844.54
205.893	1992.93
209.268	1794.7
212.643	1524.46
216.018	1151.04
219.393	993.297
222.767	973.891
226.142	1183.79
229.517	1328.93
232.892	964.156
236.267	410.098
239.642	228.574
243.016	130.918
246.391	4.41406
249.766	23.4727
253.141	96.8672
256.516	332.711
259.89	108.195
263.265	362.883
266.64	877.375
270.015	970.824
273.39	1047.22
276.764	1221.38
280.139	1395.61
283.514	1515.59
286.889	1635.89
290.264	1882.62
293.639	1673.14
297.013	1263.59
300.388	1099.42
303.763	1064.81
307.138	924.826
310.513	835.105
313.887	620.496
317.262	270.871
320.637	132.625
324.012	121.191
327.387	2.80469
330.762	80.9141
334.136	59.4414
337.511	91.0742
340.886	52.5117
344.261	52.6484
347.635	35.8594
351.01	246.934
354.385	322.789
357.76	311.859
361.135	276.812
364.51	502.516
367.884	376.309
371.259	417.438
374.634	491.763
378.009	750.488
381.384	687.023
384.759	869.449
388.133	1033.04
391.508	1123.43
394.883	947.184
398.258	721.014
401.633	854.711
405.007	795.133
408.382	782.231
411.757	958.785
415.132	1242.32
418.507	1387.56
421.881	1454.06
425.256	1524.36
428.631	1569.36
432.006	1824.62
435.381	1777.05
438.755	1908.41
442.13	1989.83
445.505	1681.79
448.88	1596.94
452.255	1293.09
455.63	1463.02
459.004	1236.33
462.379	1184.9
465.754	1189.61
469.129	1048.85
472.504	873.422
475.878	745.477
479.253	439.828
482.628	493.078
486.003	738.594
489.378	557.523
492.752	137.586
496.127	114.688
499.502	145.312
502.877	211.367
506.252	26.2422
509.627	137.75
513.001	71.5312
516.376	286.945
519.751	310.453
523.126	340.32
526.501	237.344
529.875	105.961
533.25	39.9766
536.625	219.844
540	461.984
543.375	777.914
546.75	945.398
550.124	1227.46
553.499	1692.17
556.874	2152.18
560.249	2835.23
563.624	3713.14
566.998	4062.86
570.373	3708.53
573.748	2509.92
577.123	1254.1
580.498	610.93
583.872	329.508
587.247	212.789
590.622	85.1719
593.997	31.9609
597.372	76.1562
600.747	193.93
604.121	376.977
607.496	511.312
610.871	896.516
614.246	986.25
617.621	909.758
620.995	1055.12
624.37	1524.04
627.745	1053.19
631.12	959.273
634.495	607.148
637.87	724.703
641.244	473.039
644.619	582.836
647.994	529.125
651.369	744.992
654.744	640.781
658.118	549.258
661.493	197.977
664.868	271.125
668.243	239.578
671.618	283.961
674.992	171.748
678.367	214.945
681.742	182.421
685.117	329.195
688.492	383.609
691.866	550.828
695.241	612.539
698.616	320.352
701.991	43.0312
705.366	238.789
708.741	291.898
712.115	144.602
715.49	174.789
718.865	515.891
722.24	483.586
725.615	665.852
728.99	344.984
732.364	61.8125
735.739	202.367
739.114	145.945
742.489	295.25
745.864	904.258
749.238	1070.19
752.613	538.953
755.988	1005.95
759.363	823.844
762.738	431.336
766.112	619.086
769.487	945.697
772.862	1018.57
776.237	1153.56
779.612	1101.64
782.986	1274.98
786.361	1223.88
789.736	1363.66
793.111	1789.43
796.486	1981.65
799.861	1784.13
803.235	1880.31
806.61	1859.58
809.985	2229.89
813.36	2149.02
816.735	2241.32
820.109	2377.62
823.484	2391.8
826.859	2644.32
830.234	2744.02
833.609	2332.2
836.984	2273.52
840.358	2095.05
843.733	1770.5
847.108	1298.17
850.483	688.969
853.858	143.945
857.232	162.484
860.607	390.914
863.982	548.336
867.357	140.025
870.732	210.359
874.106	3.34375
877.481	32.3984
880.856	84.6094
884.231	221.312
887.606	32.9375
890.981	195.383
894.355	807.844
897.73	853.539
901.105	303.945
904.48	149.781
907.855	23.6797
911.229	227.234
914.604	597.766
917.979	734.086
921.354	1320.92
924.729	2584.59
928.104	3663.31
931.478	4491.72
934.853	6163.88
938.228	7827.35
941.603	9600.94
944.977	10329.8
948.352	9753.82
951.727	8091.01
955.102	6014.73
958.477	3717.2
961.852	2385.18
965.226	1313.04
968.601	272.859
971.976	288.297
975.351	18.2188
978.726	317.172
982.101	364.852
985.475	482.633
988.85	327.531
992.225	133.399
995.6	252.664
998.975	159.789
1002.35	279.422
1005.72	134.188
1009.1	149.578
1012.47	260.5
1015.85	59.2109
1019.22	137.43
1022.6	184.039
1025.97	490.484
1029.35	601.359
1032.72	331.664
1036.1	631.336
1039.47	722.984
1042.85	633.062
1046.22	426.141
1049.6	434.664
1052.97	747.312
1056.35	959.734
1059.72	858.672
1063.1	493.75
1066.47	422.094
1069.85	448.344
1073.22	497.156
1076.6	447.664
1079.97	141.094
1083.35	25.4922
1086.72	434.055
1090.09	465.156
1093.47	863.844
1096.84	714.008
1100.22	1148.89
1103.59	841.016
1106.97	722.258
1110.34	568.477
1113.72	492.266
1117.09	439.266
1120.47	253.242
1123.84	187.109
1127.22	463.898
1130.59	1008.63
1133.97	904.688
1137.34	350.031
1140.72	299.069
1144.09	168.336
1147.47	85.7969
1150.84	273.273
1154.22	537.008
1157.59	681.305
1160.97	493.109
1164.34	52.3281
1167.71	205.961
1171.09	226.326
1174.46	661.602
1177.84	708.383
1181.21	598.836
1184.59	739.789
1187.96	574.43
1191.34	188.047
1194.71	169.977
1198.09	109.086
1201.46	72.5312
1204.84	170.461
1208.21	113.117
1211.59	627.359
1214.96	705.594
1218.34	130.047
1221.71	94.4922
1225.09	312.742
1228.46	261.648
1231.84	563.328
1235.21	764.914
1238.59	851.383
1241.96	846.734
1245.34	697.461
1248.71	1323.8
1252.09	637.305
1255.46	308.602
1258.84	765.633
1262.21	633
1265.59	33.7031
1268.96	373.398
1272.33	1181.88
1275.71	1345.64
1279.08	773.57
1282.46	1001.4
1285.83	1012.28
1289.21	1003.09
1292.58	387.211
1295.96	113.828
1299.33	197.375
