Measurement: Raman, 785 nm, unoriented, Raman Data Processed
Mineral: Sulvanite
Rruff sample: R060853
Ideal chemistry: Cu^2+^_3_V^3+^S^2-^_4_
Locality: Burra Burra, South Australia, Australia
Source: Michael Scott
Description: Brassy metallic massive with black tarnished surfaces
Measured chemistry: Cu_3.00_V_1.00_S_4.00_
Raman shift (cm-1)	intensity
179.381	0
182.274	0.53125
185.167	861.438
188.06	2319.88
190.952	3020.91
193.845	4116
196.738	5994.22
199.63	7983.12
202.523	9099.22
205.416	7714.78
208.308	5290.97
211.201	4168
214.094	3548.56
216.987	5781.78
219.879	6168.75
222.772	8186.41
225.665	7361.97
228.557	6663.03
231.45	6979
234.343	6919.97
237.235	7955.69
240.128	8100.53
243.021	7806.06
245.913	6035.5
248.806	4861.56
251.699	4029.94
254.592	5083.16
257.484	6296.94
260.377	6004.03
263.27	6646.25
266.162	5540.75
269.055	4427.88
271.948	2929.88
274.841	3598.25
277.733	5074.12
280.626	8515.25
283.519	11156.2
286.411	12470.8
289.304	11438.8
292.197	10281.2
295.089	14379.5
297.982	23766.8
300.875	34386.6
303.767	27731.9
306.66	14102.5
309.553	8889.12
312.446	4132.62
315.338	1578.81
318.231	265.188
321.124	418.938
324.016	2542
326.909	5724.88
329.802	7078.06
332.695	5719
335.587	2585.19
338.48	192.25
341.373	696.562
344.265	147.625
347.158	1755.31
350.051	4664.56
352.943	6669.75
355.836	6659.12
358.729	5166.81
361.622	4650.94
364.514	11230.1
367.407	29030.4
370.3	59389.1
373.192	94814.2
376.085	88802.1
378.978	38718.2
381.87	12898.5
384.763	4710.5
387.656	821.812
390.549	1202.06
393.441	2759.44
396.334	4708.56
399.227	5349.56
402.119	3193.06
405.012	911.5
407.905	801.938
410.798	337.875
413.69	947
416.583	4800.31
419.476	6050.5
422.368	4980.62
425.261	5243.38
428.154	3285
431.046	2246.25
433.939	1865.88
436.832	1932.5
439.724	3198.69
442.617	4657
445.51	5880.12
448.403	6107.81
451.295	4481.06
454.188	2011.44
457.081	1189.88
459.973	2613.06
462.866	3502.75
465.759	3516.44
468.651	4247.69
471.544	3507.81
474.437	1846.75
477.33	651.938
480.222	259.688
483.115	514.125
486.008	2022.81
488.9	4554.06
491.793	4698.62
494.686	3852.31
497.579	2254.81
500.471	1005.56
503.364	499.812
506.257	607.812
509.149	3032.94
512.042	3210.12
514.935	4186.75
517.827	4051.06
520.72	4014.12
523.613	3910.06
526.505	4314.59
529.398	2733.78
532.291	4006.22
535.184	5173.81
538.076	6462.78
540.969	5436.06
543.862	3727.34
546.754	2318.09
549.647	786.25
552.54	1338.69
555.433	2754.75
558.325	4405.91
561.218	5692.19
564.111	5803.44
567.003	5134.06
569.896	2209.31
572.789	332.5
575.681	1544.22
578.574	470.344
581.467	1281.25
584.36	2218.88
587.252	3093.19
590.145	3269.94
593.038	2454.41
595.93	1768.97
598.823	1590.72
601.716	773.562
604.608	176.312
607.501	751.656
610.394	1069.69
613.287	2076.66
616.179	1880.94
619.072	2348.06
621.965	2562.22
624.857	2150.12
627.75	1588.97
630.643	712.25
633.535	462
636.428	1145.22
639.321	1730.53
642.213	2283.06
645.106	1899.03
647.999	1241.69
650.892	732.594
653.784	1780.25
656.677	1463.5
659.57	1637.5
662.462	633.188
665.355	457.25
668.248	112.844
671.14	1725.97
674.033	2773.12
676.926	3510.41
679.819	2749.69
682.711	1428.38
685.604	709.406
688.497	666.719
691.389	943.875
694.282	2897.53
697.175	3654.59
700.067	4295.22
702.96	3023.53
705.853	1562.69
708.746	988.812
711.638	0.0625
714.531	708.188
717.424	1490.44
720.316	2409.72
723.209	2352.62
726.102	1688.06
728.995	938.875
731.887	47.75
734.78	186.188
737.673	217.031
740.565	590.438
743.458	1721.56
746.351	1436.28
749.243	2395.09
752.136	2179.31
755.029	2072.38
757.922	1510.47
760.814	86.0625
763.707	253.5
766.6	552.188
769.492	1037.12
772.385	984.625
775.278	605.406
778.17	751.969
781.063	768.719
783.956	1420.25
786.848	1718.03
789.741	1623.78
792.634	471.25
795.527	292.031
798.419	14.375
801.312	27.3438
804.205	591.844
807.097	1321.56
809.99	1753.41
812.883	2100.19
815.775	1464.5
818.668	1381.75
821.561	22.9688
824.454	389.656
827.346	1104.56
830.239	1570.81
833.132	2600.16
836.024	3456.47
838.917	3144.38
841.81	2879.75
844.703	2410.38
847.595	1351.12
850.488	1488.84
853.381	1057.62
856.273	1037.81
859.166	1655.66
862.059	2541.91
864.952	2384.72
867.844	2623.84
870.737	879.844
873.63	747.656
876.522	425.281
879.415	3.28125
882.308	286.25
885.2	689.938
888.093	346
890.986	848.719
893.879	1466.66
896.771	967.188
899.664	888.5
902.557	1162.06
905.449	977.219
908.342	750.562
911.235	802.75
914.127	797.5
917.02	922.438
919.913	1115.5
922.806	1340.72
925.698	1999.81
928.591	1860
931.484	1818.44
934.376	1221.03
937.269	369.406
940.162	568.031
943.054	251.719
945.947	818.562
948.84	1725.56
951.732	2281.17
954.625	2818.38
957.518	2215.52
960.411	1343.95
963.303	965.703
966.196	784.219
969.089	503.25
971.981	934.969
974.874	1070.91
977.767	1611.12
980.659	1842.66
983.552	1525.92
986.445	1518.91
989.338	867.125
992.23	91.3438
995.123	259
998.016	719.484
1000.91	1578.06
1003.8	1536.66
1006.69	1760.8
1009.59	2003.97
1012.48	1256.92
1015.37	1620.19
1018.26	387.094
1021.16	168.844
1024.05	185.156
1026.94	146.562
1029.84	1506.94
1032.73	1353.64
1035.62	2041
1038.51	1500.27
1041.41	1503.36
1044.3	896.547
1047.19	562.062
1050.08	29.0781
1052.98	379.266
1055.87	884.203
1058.76	1141.48
1061.65	930.875
1064.55	136.516
1067.44	129.078
1070.33	774.047
1073.23	752.781
1076.12	807.547
1079.01	545.75
1081.9	143.859
1084.8	176.891
1087.69	516.125
1090.58	1230.48
1093.47	2077.77
1096.37	2196.89
1099.26	2023.61
1102.15	1219.05
1105.05	178.406
1107.94	147.656
1110.83	478.125
1113.72	570.328
1116.62	1597.55
1119.51	1401.39
1122.4	1343.11
1125.3	1594.66
1128.19	1427.33
1131.08	694.672
1133.97	416.75
1136.87	192.047
1139.76	366.953
1142.65	503.734
1145.54	784.578
1148.44	1084.27
1151.33	1107.72
1154.22	1049.61
1157.11	901.422
1160.01	1023.19
1162.9	549.391
1165.79	162.719
1168.68	90.2031
1171.58	301.188
1174.47	588.016
1177.36	1027.8
1180.26	994.172
1183.15	1057.19
1186.04	985.312
1188.93	560.984
1191.83	421.281
1194.72	24.2656
1197.61	151.344
1200.51	409.188
1203.4	718.219
1206.29	705.922
1209.18	544.406
1212.08	564.391
1214.97	537.703
1217.86	791.031
1220.75	286.922
1223.65	794.969
1226.54	872.594
1229.43	422.344
1232.32	207.875
1235.22	765.703
1238.11	1144.34
1241	1485.75
1243.89	1418.3
1246.79	1282.42
1249.68	716.094
1252.57	510.766
1255.47	231.344
1258.36	149.758
1261.25	36.4453
1264.14	133.18
