Measurement: Raman, 780 nm, unoriented, Raman Data Processed
Mineral: Surite
Rruff sample: R110145
Ideal chemistry: (Pb^2+^,Ca)_3_Al_2_(Si,Al)_4_O_10_(CO_3_)_2_(OH)_3_0.3H_2_O
Locality: Mammoth mine, Tiger, Arizona, USA
Source: Joe Ruiz
Description: Spherical aggregates of white to transparent waxy platy crystals associated with yellow mimetite
Raman shift (cm-1)	intensity
229.489	0.88269
232.382	0.827026
235.274	4.43543
238.167	2.01562
241.06	1.21179
243.952	5.27869
246.845	14.5073
249.738	22.7531
252.631	27.0615
255.523	46.5166
258.416	62.448
261.309	79.0035
264.201	82.0109
267.094	63.0333
269.987	48.5901
272.879	32.458
275.772	25.8502
278.665	33.8315
281.558	34.0917
284.45	34.0577
287.343	39.5866
290.236	45.7783
293.128	33.2809
296.021	25.5715
298.914	22.3518
301.806	14.3075
304.699	6.55493
307.592	15.6354
310.485	6.50879
313.377	8.10645
316.27	10.6206
319.163	6.36597
322.055	1.71399
324.948	1.44702
327.841	1.12708
330.733	0.534302
333.626	5.21204
336.519	1.99536
339.411	1.26453
342.304	4.98242
345.197	3.05701
348.09	4.64502
350.982	0.210083
353.875	8.00085
356.768	7.24036
359.66	4.6853
362.553	7.84827
365.446	2.06482
368.339	7.15259
371.231	4.14111
374.124	1.64209
377.017	3.50659
379.909	1.64038
382.802	5.23108
385.695	1.55444
388.587	5.63098
391.48	1.42712
394.373	2.40869
397.265	4.29394
400.158	9.49402
403.051	11.8235
405.944	16.7199
408.836	18.1669
411.729	12.4275
414.622	19.5964
417.514	16.4449
420.407	21.9066
423.3	18.5902
426.192	23.6599
429.085	24.6719
431.978	23.5092
434.871	22.3616
437.763	22.901
440.656	22.249
443.549	21.785
446.441	24.299
449.334	14.7804
452.227	18.6612
455.12	18.3737
458.012	18.1017
460.905	20.1169
463.798	14.9659
466.69	16.6254
469.583	11.8918
472.476	19.4401
475.368	15.9028
478.261	18.0487
481.154	22.4237
484.047	19.8355
486.939	19.5275
489.832	21.0382
492.725	22.6106
495.617	22.379
498.51	16.7604
501.403	16.3402
504.296	18.0232
507.188	14.1598
510.081	15.3439
512.974	5.42645
515.866	3.89648
518.759	6.85193
521.652	3.9679
524.544	4.20398
527.437	0.477661
530.33	1.41077
533.222	2.28229
536.115	5.17566
539.008	0.029541
541.901	1.52235
544.793	0.217712
547.686	0.948242
550.579	0.305481
553.471	4.02496
556.364	7.55664
559.257	8.57855
562.149	8.00226
565.042	14.221
567.935	13.1708
570.828	11.4427
573.72	10.6058
576.613	8.18915
579.506	3.63025
582.398	5.7641
585.291	4.43011
588.184	1.70294
591.077	5.43066
593.969	1.01404
596.862	1.66736
599.755	1.64758
602.647	5.51764
605.54	7.01788
608.433	6.45972
611.325	7.31738
614.218	5.77447
617.111	2.53876
620.004	7.93829
622.896	2.862
625.789	8.38824
628.682	6.15472
631.574	0.415039
634.467	6.66473
637.36	7.21887
640.252	0.620728
643.145	4.51184
646.038	1.10419
648.931	1.20972
651.823	3.56213
654.716	2.48834
657.609	5.76343
660.501	4.53284
663.394	7.64191
666.287	11.7897
669.179	17.3171
672.072	21.783
674.965	24.5065
677.857	20.8899
680.75	31.2756
683.643	29.4222
686.536	30.5273
689.428	38.2249
692.321	48.0643
695.214	49.0492
698.106	53.3756
700.999	59.1066
703.892	58.0049
706.784	56.1224
709.677	44.8693
712.57	29.6715
715.463	20.0795
718.355	17.4703
721.248	11.2734
724.141	6.1015
727.033	5.271
729.926	2.43494
732.819	4.14404
735.712	1.4801
738.604	2.48767
741.497	2.47083
744.39	2.98602
747.282	1.04889
750.175	0.934998
753.068	0.342285
755.96	2.34546
758.853	4.93225
761.746	3.6391
764.639	1.4942
767.531	3.86469
770.424	0.646729
773.317	3.16846
776.209	6.5672
779.102	4.03235
781.995	7.17621
784.887	6.61798
787.78	6.7121
790.673	10.7198
793.566	6.77502
796.458	9.75971
799.351	4.26269
802.244	6.43298
805.136	4.96387
808.029	5.67163
810.922	0.33728
813.814	4.04077
816.707	7.85986
819.6	4.02814
822.493	5.27332
825.385	6.2804
828.278	8.81958
831.171	3.8078
834.063	3.63983
836.956	8.32001
839.849	6.67267
842.741	6.08374
845.634	3.95862
848.527	0.363525
851.42	10.1148
854.312	5.00763
857.205	7.13629
860.098	8.03626
862.99	9.29761
865.883	12.5059
868.776	15.0864
871.668	11.5712
874.561	7.65668
877.454	2.56732
880.347	5.13861
883.239	2.73846
886.132	8.63214
889.025	0.845764
891.917	1.73199
894.81	0.597412
897.703	0.467651
900.596	3.15503
903.488	4.15326
906.381	5.23401
909.274	5.89667
912.166	6.88141
915.059	5.63013
917.952	4.6839
920.844	3.74609
923.737	5.52356
926.63	3.09155
929.523	6.15857
932.415	3.01978
935.308	6.39545
938.201	5.10156
941.093	3.61151
943.986	5.34741
946.879	3.29364
949.771	6.78168
952.664	5.07916
955.557	7.75433
958.449	7.37195
961.342	2.78363
964.235	0.150696
967.128	2.89203
970.02	0.931885
972.913	0.897461
975.806	1.46014
978.698	1.01208
981.591	0.370911
984.484	0.476563
987.376	3.17847
990.269	1.84094
993.162	2.36475
996.055	0.215698
998.947	8.36188
1001.84	2.31952
1004.73	4.83899
1007.62	6.23102
1010.52	3.84003
1013.41	2.84051
1016.3	1.45001
1019.2	1.26593
1022.09	1.73682
1024.98	1.20557
1027.87	2.27954
1030.77	3.76978
1033.66	4.69922
1036.55	3.90582
1039.44	3.35034
1042.34	1.00543
1045.23	6.50055
1048.12	8.83606
1051.02	6.37122
1053.91	7.8009
1056.8	11.0116
1059.69	16.1597
1062.59	20.2231
1065.48	37.6597
1068.37	56.9047
1071.27	88.2605
1074.16	121.729
1077.05	161.13
1079.94	194.264
1082.84	170.261
1085.73	103.518
1088.62	52.4216
1091.51	18.2347
1094.41	16.9253
1097.3	8.24292
1100.19	8.94318
1103.08	5.60925
1105.98	4.33331
1108.87	3.24158
1111.76	4.50299
1114.65	1.6687
1117.55	2.22461
1120.44	0.249207
1123.33	2.97815
1126.23	0.273499
1129.12	3.10474
1132.01	0.535278
1134.9	0.21875
1137.8	0.544861
1140.69	1.42086
1143.58	0.206909
1146.47	2.32465
1149.37	2.13562
1152.26	0.692627
1155.15	2.1778
1158.05	5.90906
1160.94	1.14374
1163.83	3.51062
1166.72	3.01953
1169.62	5.50781
1172.51	4.06061
1175.4	5.66876
1178.3	5.32977
1181.19	5.10229
1184.08	5.33716
1186.97	3.45923
1189.87	6.31433
1192.76	5.84241
1195.65	5.53864
1198.54	7.37537
1201.44	4.25641
1204.33	5.03528
1207.22	4.6731
1210.11	6.42712
1213.01	5.31091
1215.9	6.83801
1218.79	4.82819
1221.68	3.18469
1224.58	0.388489
1227.47	1.87225
1230.36	3.35217
1233.26	4.90595
1236.15	3.44208
1239.04	3.75989
1241.93	1.16119
1244.83	3.08307
1247.72	1.63471
1250.61	3.69031
1253.51	1.66876
1256.4	1.22601
1259.29	1.99176
1262.18	4.35608
1265.08	5.50458
1267.97	4.84747
1270.86	3.08374
1273.75	4.77216
1276.65	0.044983
1279.54	0.833008
1282.43	3.9314
1285.33	2.7843
