Measurement: Raman, 532 nm, unoriented, Raman Data Processed
Mineral: Sursassite
Rruff sample: R060336
Ideal chemistry: Mn^2+^_2_Al_3_(SiO_4_)(Si_2_O_7_)(OH)_3_
Locality: Strategic Manganese mine, near Woodstock, New Brunswick, Canada
Source: Michael Scott
Description: Reddish-brown fibrous or platy crystals in parallel or radiating groups
Raman shift (cm-1)	intensity
172.934	0
175.827	1.09783
178.72	0.613144
181.612	0.810959
184.505	1.61589
187.398	0.651878
190.29	4.63518
193.183	2.17219
196.076	3.07184
198.968	3.43838
201.861	3.51942
204.754	4.83376
207.647	2.71304
210.539	6.41203
213.432	3.21365
216.325	5.35407
219.217	3.06468
222.11	1.99925
225.003	1.96182
227.895	2.83996
230.788	2.00288
233.681	1.63316
236.573	1.45832
239.466	2.33969
242.359	0.893639
245.252	0.075508
248.144	1.3035
251.037	1.24181
253.93	0.149902
256.822	0.052704
259.715	0.617874
262.608	1.33707
265.5	2.32619
268.393	2.51907
271.286	4.92616
274.179	2.63291
277.071	1.95989
279.964	4.96943
282.857	4.2408
285.75	1.90791
288.642	2.92409
291.535	0.915222
294.428	1.44087
297.32	1.59033
300.213	1.2022
303.106	2.3185
305.998	2.4965
308.891	2.54793
311.784	1.4519
314.676	2.952
317.569	1.46057
320.462	0.300926
323.355	0.861359
326.247	1.18087
329.14	3.38239
332.033	4.22515
334.925	8.49498
337.818	8.561
340.711	14.7485
343.603	15.3929
346.496	19.3744
349.389	20.446
352.281	22.2151
355.174	20.571
358.067	20.6101
360.96	17.2203
363.852	18.1628
366.745	16.501
369.638	17.1219
372.53	13.3746
375.423	12.6856
378.316	11.8385
381.209	8.73035
384.101	8.25389
386.994	9.26408
389.887	8.31059
392.779	3.90721
395.672	3.85854
398.565	4.26145
401.457	1.9227
404.35	1.2639
407.243	1.42659
410.135	1.03165
413.028	2.12881
415.921	0.001556
418.814	0.199051
421.706	1.3805
424.599	0.699646
427.492	2.16556
430.384	2.41898
433.277	2.61057
436.17	6.30272
439.062	9.009
441.955	10.8787
444.848	11.7006
447.741	7.91705
450.633	9.62537
453.526	7.46839
456.419	5.83701
459.311	1.23567
462.204	1.63483
465.097	2.72589
467.99	2.081
470.882	2.52931
473.775	3.89427
476.668	3.99919
479.56	4.80457
482.453	7.65731
485.346	8.55205
488.238	8.7049
491.131	8.51263
494.024	5.27999
496.916	2.37573
499.809	1.42421
502.702	0.123039
505.595	0.314026
508.487	0.739281
511.38	0.4748
514.273	0.465958
517.165	1.76456
520.058	2.85941
522.951	5.84402
525.844	10.1649
528.736	10.9584
531.629	15.1401
534.522	15.3068
537.414	20.0186
540.307	23.8505
543.2	27.9739
546.092	32.5476
548.985	41.1251
551.878	47.3661
554.771	42.8946
557.663	37.1186
560.556	25.9872
563.449	16.5753
566.341	11.5414
569.234	5.94516
572.127	4.73822
575.019	1.68215
577.912	0.197281
580.805	1.69148
583.697	0.782547
586.59	1.23379
589.483	0.16433
592.376	0.168106
595.268	1.86381
598.161	1.0966
601.054	2.24376
603.946	4.9585
606.839	5.78006
609.732	10.5125
612.625	15.4069
615.517	17.0166
618.41	19.7037
621.303	22.8804
624.195	23.4716
627.088	23.479
629.981	23.484
632.873	22.3252
635.766	20.8735
638.659	20.8865
641.552	18.7304
644.444	15.9328
647.337	17.5197
650.23	17.4448
653.122	18.5348
656.015	20.1272
658.908	19.258
661.8	21.9788
664.693	18.7879
667.586	17.4647
670.479	15.3612
673.371	13.8202
676.264	12.7993
679.157	10.895
682.049	10.2669
684.942	11.7817
687.835	14.5124
690.727	19.0334
693.62	22.6017
696.513	30.6089
699.405	33.0899
702.298	32.2653
705.191	32.2164
708.084	28.4113
710.976	22.5277
713.869	18.1034
716.762	13.2876
719.654	7.7425
722.547	4.56516
725.44	1.95816
728.332	0.117683
731.225	0.075211
734.118	0.15049
737.011	0.742378
739.903	0.534103
742.796	1.32599
745.689	0.700378
748.581	0.039932
751.474	1.62543
754.367	0.320961
757.26	2.08347
760.152	1.51111
763.045	1.704
765.938	1.96697
768.83	0.791565
771.723	3.21836
774.616	6.15346
777.508	2.12135
780.401	3.29029
783.294	3.40248
786.187	2.94984
789.079	3.2794
791.972	4.78117
794.865	3.33846
797.757	4.2552
800.65	2.19859
803.543	2.31712
806.435	2.64363
809.328	1.73373
812.221	3.05544
815.114	3.38599
818.006	3.02531
820.899	2.93892
823.792	3.0138
826.684	0.164139
829.577	0.667969
832.47	2.37412
835.362	0.87545
838.255	0.001801
841.148	1.43852
844.04	1.23331
846.933	2.81108
849.826	2.67077
852.719	3.59878
855.611	3.87526
858.504	5.40335
861.397	7.72915
864.289	6.81393
867.182	4.42334
870.075	4.86456
872.967	7.29964
875.86	4.24532
878.753	6.16091
881.646	5.51965
884.538	6.48449
887.431	3.28112
890.324	3.66833
893.216	4.50544
896.109	4.73461
899.002	3.17374
901.894	3.47991
904.787	6.02048
907.68	7.34145
910.573	10.0357
913.465	12.1806
916.358	17.8238
919.251	20.9455
922.143	22.8031
925.036	22.6728
927.929	22.4852
930.822	21.3954
933.714	17.3847
936.607	11.5386
939.5	10.6523
942.392	10.5889
945.285	8.646
948.178	7.23503
951.07	5.78443
953.963	3.56821
956.856	4.25305
959.749	5.29639
962.641	1.35364
965.534	2.37849
968.427	0.221367
971.319	2.33069
974.212	0.256317
977.105	2.37637
979.997	0.927521
982.89	1.54892
985.783	2.15347
988.676	1.52713
991.568	1.75478
994.461	0.971107
997.354	2.74342
1000.25	2.74266
1003.14	0.510506
1006.03	3.33157
1008.92	2.5267
1011.82	1.76685
1014.71	4.86928
1017.6	3.97357
1020.5	5.35046
1023.39	5.81881
1026.28	5.29583
1029.17	5.15227
1032.07	5.42789
1034.96	4.45556
1037.85	3.15975
1040.74	4.25759
1043.64	0.591393
1046.53	2.65839
1049.42	0.216461
1052.32	1.68419
1055.21	0.131958
1058.1	1.05107
1060.99	0.899048
1063.89	0.333168
1066.78	2.66488
1069.67	2.70235
1072.56	0.925575
1075.46	2.19052
1078.35	4.25751
1081.24	4.09606
1084.13	5.61178
1087.03	5.23753
1089.92	4.49128
1092.81	1.81772
1095.7	1.49477
1098.6	1.24195
1101.49	0.731689
1104.38	0.075653
1107.28	1.08147
1110.17	1.37054
1113.06	1.88924
1115.95	1.60175
1118.85	0.281799
1121.74	0.387497
1124.63	0.746658
1127.53	1.55447
1130.42	0.436035
1133.31	1.38718
1136.2	0.005592
1139.1	2.35558
1141.99	0.142189
1144.88	0.913177
1147.77	1.12042
1150.67	2.12849
1153.56	3.0818
1156.45	2.05794
1159.35	1.62071
1162.24	0.573853
1165.13	0.189056
1168.02	1.19935
1170.92	2.39455
1173.81	1.7347
1176.7	1.43185
1179.59	0.860588
1182.49	0.372307
1185.38	2.13542
1188.27	2.22797
1191.16	1.58732
1194.06	2.78588
1196.95	0.733368
1199.84	1.54179
1202.73	1.16834
1205.63	0.115128
1208.52	0.427116
1211.41	2.88142
1214.31	0.992188
1217.2	1.56309
1220.09	0.532318
1222.98	0.034233
1225.88	1.23911
1228.77	2.30855
1231.66	1.13456
1234.56	1.5652
1237.45	2.44663
1240.34	0.929115
1243.23	0.183693
1246.13	1.44072
1249.02	1.73766
1251.91	2.09502
1254.8	2.48962
1257.7	1.87481
1260.59	1.58992
1263.48	1.49418
1266.38	3.28339
1269.27	3.44063
1272.16	0.740814
1275.05	3.56314
1277.95	3.12351
1280.84	0.838066
1283.73	1.00046
1286.62	0.327644
1289.52	0.250679
1292.41	1.69894
1295.3	2.3661
1298.19	2.09755
1301.09	0.020721
