Measurement: Raman, 780 nm, unoriented, Raman Data Processed
Mineral: Swedenborgite
Rruff sample: R060486
Ideal chemistry: NaBe_4_Sb^5+^O_7_
Locality: Langban, Filipstad, Varmland, Sweden
Source: Michael Scott
Description: Colorless glassy fragment in center of the photo
Measured chemistry: (Na_0.94_Ca_0.03_[box]_0.03_)_Î£=1_Be_4.00_Sb^5+^_1.00_O_7_; trace amounts of As; Be estimated by difference
Raman shift (cm-1)	intensity
107.47	0
110.845	0.464355
114.219	38.2905
117.594	73.0234
120.969	45.5767
124.344	29.9961
127.719	11.7305
131.094	12.896
134.468	3.92773
137.843	22.2935
141.218	48.1094
144.593	71.8164
147.968	118.362
151.342	113.526
154.717	139.919
158.092	86.0606
161.467	49.4473
164.842	59.623
168.216	22.8096
171.591	22.9263
174.966	23.5962
178.341	23.2788
181.716	44.1704
185.09	55.083
188.465	29.8179
191.84	24.4287
195.215	25.1758
198.59	14.0024
201.965	30.6352
205.339	34.4136
208.714	37.9375
212.089	51.3071
215.464	45.6973
218.839	29.54
222.214	35.0972
225.588	40.522
228.963	24.7822
232.338	28.3872
235.713	12.0459
239.088	32.5249
242.462	11.4497
245.837	16.0117
249.212	40.4312
252.587	24.1572
255.962	11.1836
259.336	6.81201
262.711	21.5107
266.086	15.1382
269.461	26.7446
272.836	38.916
276.211	55.6455
279.585	82.2026
282.96	47.4482
286.335	53.5957
289.71	83.1465
293.085	55.6509
296.459	49.9346
299.834	61.8159
303.209	95.8516
306.584	99.418
309.959	115.468
313.334	158.102
316.708	361.556
320.083	448.454
323.458	114.638
326.833	41.02
330.207	1.36035
333.582	3.70947
336.957	74.2173
340.332	30.3135
343.707	29.916
347.082	51.1045
350.456	9.69287
353.831	13.5928
357.206	19.584
360.581	20.9253
363.956	1.61328
367.33	11.5596
370.705	24.1196
374.08	4.66016
377.455	3.79834
380.83	9.42334
384.205	10.3848
387.579	54.0386
390.954	60.2666
394.329	138.51
397.704	223.293
401.079	146.173
404.453	33.1621
407.828	22.4102
411.203	15.5576
414.578	29.9614
417.953	50.188
421.327	116.126
424.702	208.408
428.077	427.63
431.452	243.537
434.827	58.3691
438.202	14.8042
441.576	2.34912
444.951	6.23731
448.326	10.3462
451.701	41.5093
455.076	45.4243
458.45	40.959
461.825	60.4824
465.2	40.6538
468.575	46.9126
471.95	59.5288
475.325	55.6636
478.699	54.1313
482.074	53.7695
485.449	35.6348
488.824	37.8682
492.199	47.1685
495.573	57.7192
498.948	20.0483
502.323	36.9741
505.698	27.5415
509.073	41.1196
512.447	24.1382
515.822	39.6514
519.197	0.254883
522.572	24.9321
525.947	9.47266
529.322	27.4219
532.696	9.58008
536.071	17.5239
539.446	31.1274
542.821	16.1514
546.196	1.47559
549.57	10.4194
552.945	17.375
556.32	3.78174
559.695	53.6494
563.07	61.6343
566.444	78.813
569.819	169.623
573.194	329.459
576.569	453.966
579.944	224.279
583.319	92.8936
586.693	54.5029
590.068	49.5562
593.443	124.267
596.818	201.267
600.193	116.662
603.567	64.9829
606.942	18.2573
610.317	33.249
613.692	10.2324
617.067	13.5889
620.442	22.6992
623.816	80.6694
627.191	94.9517
630.566	114.587
633.941	235.472
637.316	341.68
640.69	832.352
644.065	901.293
647.44	136.071
650.815	28.5781
654.19	4.41748
657.564	3.19531
660.939	19.1123
664.314	13.2373
667.689	5.92188
671.064	4.73633
674.439	2.86719
677.813	11.8799
681.188	19.7354
684.563	9.48633
687.938	13.6982
691.313	43.3677
694.688	34.1802
698.062	44.6489
701.437	120.214
704.812	185.898
708.187	199.357
711.562	144.502
714.936	88.7222
718.311	72.2378
721.686	36.542
725.061	34.0435
728.436	21.4243
731.81	88.9282
735.185	128.162
738.56	163.325
741.935	82.1821
745.31	53.3232
748.684	25.8105
752.059	52.4502
755.434	108.673
758.809	173.353
762.184	336.765
765.559	602.985
768.933	671.342
772.308	383.556
775.683	177.688
779.058	171.612
782.433	264.752
785.808	460.553
789.182	787.517
792.557	1278.76
795.932	1833.61
799.307	1501.92
802.682	694.941
806.056	352.702
809.431	191.246
812.806	87.0923
816.181	64.021
819.556	49.8901
822.93	51.5649
826.305	1.58057
829.68	10.5552
833.055	15.7783
836.43	3.3291
839.804	9.91309
843.179	6.87207
846.554	1.35254
849.929	3.59668
853.304	5.43066
856.679	3.16846
860.053	6.92432
863.428	31.6025
866.803	14.6016
870.178	21.8442
873.553	14.6572
876.927	5.84912
880.302	0.521484
883.677	28.585
887.052	20.917
890.427	14.9233
893.802	23.417
897.176	9.77002
900.551	50.9736
903.926	65.9932
907.301	131.804
910.676	81.4473
914.05	36.8418
917.425	43.4751
920.8	35.9668
924.175	3.02685
927.55	24.6196
930.924	38.1357
934.299	23.6899
937.674	31.9385
941.049	33.7134
944.424	0.219727
947.799	16.2256
951.173	15.4951
954.548	16.5166
957.923	24.4863
961.298	12.8979
964.673	0.515137
968.047	30.6592
971.422	22.9805
974.797	6.68994
978.172	3.34619
981.547	22.4067
984.922	18.7412
988.296	19.2817
991.671	12.7041
995.046	33.9497
998.421	16.1992
1001.8	34.9087
1005.17	41.5137
1008.54	22.2534
1011.92	22.5757
1015.29	38.4082
1018.67	29.6172
1022.04	14.8965
1025.42	14.5928
1028.79	0.625
1032.17	9.10205
1035.54	43.4858
1038.92	29.6914
1042.29	38.2891
1045.67	21.1118
1049.04	16.1841
1052.42	23.1099
1055.79	37.6782
1059.17	44.0278
1062.54	32.0447
1065.92	35.5452
1069.29	51.8149
1072.67	34.3076
1076.04	19.6379
1079.42	14.3767
1082.79	64.9023
1086.17	93.6721
1089.54	125.768
1092.92	80.8445
1096.29	12.7624
1099.66	21.2473
1103.04	37.4665
1106.41	19.4153
1109.79	44.8499
1113.16	7.56885
1116.54	1.12158
1119.91	1.10571
1123.29	11.4851
1126.66	3.89624
1130.04	16.5525
1133.41	7.79565
1136.79	42.4539
1140.16	69.6946
1143.54	60.8188
1146.91	85.3315
1150.29	48.0759
1153.66	77.1794
1157.04	60.1633
1160.41	78.4438
1163.79	85.5566
1167.16	110.836
1170.54	132.225
1173.91	126.698
1177.29	117.492
1180.66	126.159
1184.04	81.7859
1187.41	72.9133
1190.79	78.3806
1194.16	67.7703
1197.54	58.7351
1200.91	35.9551
1204.28	14.0664
1207.66	9.80493
1211.03	3.17236
1214.41	4.78418
1217.78	7.87109
1221.16	30.4331
1224.53	54.6624
1227.91	54.0791
1231.28	64.844
1234.66	89.5444
1238.03	117.656
1241.41	120.126
1244.78	119.236
1248.16	109.206
1251.53	68.5774
1254.91	56.4402
1258.28	46.9199
1261.66	27.7331
1265.03	23.7246
1268.41	14.7378
1271.78	4.58545
1275.16	0.922119
1278.53	9.57837
1281.9	10.7175
