Measurement: Raman, 532 nm, unoriented, Raman Data Processed
Mineral: Symplesite
Rruff sample: R120074
Ideal chemistry: Fe^2+^_3_(As^5+^O_4_)_2_8H_2_O
Locality: Saubachbruch, Muldenberg, Vogtland, Sachsen, Germany
Source: Bob Jenkins
Description: Aggregate of black bladed crystals,  2-fold twin around [1 -1 0]
Raman shift (cm-1)	intensity
204.105	0
206.998	1.05895
209.891	0.129395
212.784	0.830252
215.676	0.093475
218.569	1.41472
221.462	1.50968
224.354	1.90176
227.247	2.68602
230.14	3.99941
233.032	4.49597
235.925	5.78573
238.818	6.42193
241.71	6.92246
244.603	7.53963
247.496	7.71114
250.389	7.64618
253.281	6.80118
256.174	6.25252
259.067	6.35567
261.959	5.1941
264.852	5.26125
267.745	5.63445
270.637	6.13181
273.53	6.43519
276.423	5.97058
279.316	5.54956
282.208	4.94591
285.101	4.40079
287.994	3.63941
290.886	3.22561
293.779	3.00303
296.672	2.55746
299.565	2.29074
302.457	1.40477
305.35	1.64279
308.243	0.838255
311.135	0.952612
314.028	0.725454
316.921	0.751175
319.813	0.311462
322.706	0.069494
325.599	0.266514
328.491	0.243839
331.384	0.09008
334.277	0.296141
337.17	0.095188
340.062	0.246244
342.955	0.62458
345.848	0.890024
348.74	0.864077
351.633	1.224
354.526	1.75168
357.418	1.7467
360.311	2.70663
363.204	2.95104
366.097	3.97029
368.989	3.62255
371.882	4.09483
374.775	4.47082
377.667	4.06286
380.56	3.50714
383.453	3.57026
386.346	2.52491
389.238	2.5608
392.131	1.56209
395.024	1.6898
397.916	1.82045
400.809	1.26679
403.702	1.18889
406.594	1.03567
409.487	0.516363
412.38	0.004343
415.272	0.282854
418.165	0.055141
421.058	0.245995
423.951	0.24205
426.843	0.295406
429.736	0.883492
432.629	1.0852
435.521	1.79734
438.414	2.38865
441.307	3.18302
444.2	3.29779
447.092	4.11115
449.985	3.69798
452.878	4.043
455.77	4.45209
458.663	3.8241
461.556	4.40627
464.448	4.4412
467.341	5.75801
470.234	5.35683
473.127	5.23087
476.019	5.56836
478.912	5.86386
481.805	6.21302
484.697	6.57065
487.59	6.92431
490.483	7.25071
493.375	6.92604
496.268	7.30289
499.161	7.3351
502.053	7.23931
504.946	6.40946
507.839	6.07932
510.732	5.95181
513.624	5.19623
516.517	5.23606
519.41	4.69338
522.302	4.37718
525.195	4.29706
528.088	3.6076
530.981	3.11648
533.873	2.66176
536.766	2.53388
539.659	2.10731
542.551	1.57498
545.444	1.15897
548.337	0.829588
551.229	0.815293
554.122	0.703093
557.015	0.514246
559.908	0.165133
562.8	0.102094
565.693	0.015136
568.586	0.305562
571.478	0.317454
574.371	0.02068
577.264	0.014623
580.156	0.09235
583.049	0.180091
585.942	0.111309
588.835	0.131572
591.727	0.574186
594.62	0.119914
597.513	0.135355
600.405	0.550113
603.298	0.205079
606.191	0.610783
609.083	0.671398
611.976	0.650289
614.869	1.03942
617.761	1.05128
620.654	0.803208
623.547	0.897525
626.44	0.683632
629.332	0.860425
632.225	0.898374
635.118	1.30492
638.01	1.28838
640.903	1.34867
643.796	0.771345
646.688	1.11548
649.581	1.19919
652.474	1.54851
655.367	0.858257
658.259	1.12328
661.152	1.40799
664.045	0.907387
666.937	1.36352
669.83	1.4271
672.723	1.16395
675.615	1.35747
678.508	1.28721
681.401	1.17992
684.294	1.07165
687.186	0.798308
690.079	1.05981
692.972	0.614661
695.864	0.789882
698.757	0.806023
701.65	0.627498
704.543	0.491167
707.435	0.133481
710.328	0.119916
713.221	0.02348
716.113	0.418329
719.006	0.069323
721.899	0.05647
724.791	0.172369
727.684	0.101116
730.577	0.11823
733.47	0.09664
736.362	0.223699
739.255	0.156017
742.148	0.168797
745.04	0.424474
747.933	1.11372
750.826	1.59633
753.718	2.06382
756.611	3.29246
759.504	4.20284
762.396	4.70782
765.289	5.13183
768.182	5.17387
771.075	5.10997
773.967	4.88813
776.86	4.22955
779.753	4.01502
782.645	3.48112
785.538	3.16598
788.431	2.6714
791.323	3.0311
794.216	3.15739
797.109	3.02545
800.002	2.52444
802.894	2.64315
805.787	1.80735
808.68	1.36812
811.572	1.24312
814.465	0.785027
817.358	1.18998
820.25	1.21677
823.143	2.4277
826.036	3.17563
828.929	3.51064
831.821	4.08462
834.714	5.54201
837.607	6.32385
840.5	6.86477
843.392	6.73817
846.285	7.22157
849.178	6.2232
852.07	6.08668
854.963	5.77563
857.856	4.82471
860.748	4.48915
863.641	4.36528
866.534	4.19068
869.427	4.08083
872.319	4.41168
875.212	4.23638
878.105	4.92439
880.997	5.54244
883.89	6.49695
886.783	7.88478
889.675	8.93985
892.568	9.02142
895.461	9.53852
898.354	8.59913
901.246	7.8949
904.139	6.29205
907.032	4.57906
909.924	3.51322
912.817	2.53034
915.71	1.72322
918.602	0.903263
921.495	0.671044
924.388	0.193423
927.28	0.046759
930.173	0.491961
933.066	0.015328
935.959	0.068005
938.851	0.349837
941.744	0.123248
944.637	0.046235
947.529	0.128365
950.422	0.10277
953.315	0.176515
956.207	0.243669
959.1	0.347103
961.993	0.446638
964.886	0.377361
967.778	0.486145
970.671	0.529846
973.564	0.686244
976.456	0.711396
979.349	0.838707
982.242	0.991037
985.135	0.938262
988.027	1.1597
990.92	0.923892
993.813	0.860431
996.705	0.917465
999.598	0.858751
1002.49	0.800366
1005.38	0.521235
1008.28	0.762728
1011.17	0.55687
1014.06	0.667619
1016.95	0.872346
1019.85	0.946943
1022.74	0.515792
1025.63	0.980405
1028.53	1.06153
1031.42	0.333265
1034.31	0.692101
1037.2	0.7264
1040.1	0.650583
1042.99	0.492977
1045.88	0.748826
1048.77	0.571345
1051.67	0.60556
1054.56	0.265858
1057.45	0.310145
1060.35	0.551453
1063.24	0.24005
1066.13	0.04722
1069.02	0.414764
1071.92	0.391389
1074.81	0.065961
1077.7	0.212387
1080.59	0.409273
1083.49	0.465431
1086.38	0.499475
1089.27	0.152729
1092.16	0.295797
1095.06	0.319537
1097.95	0.059367
1100.84	0.253395
1103.73	0.164968
1106.63	0.422421
1109.52	0.251398
1112.41	0.179152
1115.31	0.207686
1118.2	0.090014
1121.09	0.172192
1123.98	0.127751
1126.88	0.16181
1129.77	0.2654
1132.66	0.412549
1135.56	0.102222
1138.45	0.30787
1141.34	0.279888
1144.23	0.128872
1147.13	0.244195
1150.02	0.170938
1152.91	0.175612
1155.8	0.531401
1158.7	0.353703
1161.59	0.255359
1164.48	0.211434
1167.38	0.612864
1170.27	0.189528
1173.16	0.154876
1176.05	0.277644
1178.94	0.372785
1181.84	0.140265
1184.73	0.386292
1187.62	0.352569
1190.52	0.238404
1193.41	0.066452
1196.3	0.275167
1199.19	0.267249
1202.09	0.179904
1204.98	0.577611
1207.87	0.064765
1210.77	0.477965
1213.66	0.414679
1216.55	0.168449
1219.44	0.664582
1222.34	0.35032
1225.23	0.236366
1228.12	0.664161
1231.01	0.309863
1233.91	0.574541
1236.8	0.341282
1239.69	0.089377
1242.59	0.339542
1245.48	0.288054
1248.37	0.060714
1251.26	0.165559
1254.16	0.321335
1257.05	0.378244
1259.94	0.334754
1262.83	0.176519
1265.73	0.140638
1268.62	0.528213
1271.51	0.267922
1274.4	0.385439
1277.3	0.175247
1280.19	0.54318
1283.08	0.592851
1285.97	0.083191
1288.87	0.365531
1291.76	0.106386
1294.65	0.133844
1297.55	0.100564
1300.44	0.175727
