Measurement: Raman, 780 nm, unoriented, Raman Data Processed
Mineral: Symplesite
Rruff sample: R120074
Ideal chemistry: Fe^2+^_3_(As^5+^O_4_)_2_8H_2_O
Locality: Saubachbruch, Muldenberg, Vogtland, Sachsen, Germany
Source: Bob Jenkins
Description: Aggregate of black bladed crystals,  2-fold twin around [1 -1 0]
Raman shift (cm-1)	intensity
104.217	0
107.591	0.374853
110.966	0.08436
114.341	0.214188
117.716	0.877102
121.091	0.460697
124.466	1.01884
127.84	1.26402
131.215	1.40937
134.59	1.79162
137.965	1.32262
141.34	1.30059
144.714	0.704134
148.089	0.143259
151.464	0.19754
154.839	0.031067
158.214	0.440451
161.589	0.283899
164.963	0.13221
168.338	0.689896
171.713	0.741348
175.088	0.686222
178.463	0.505344
181.838	0.506474
185.212	1.6331
188.587	1.13385
191.962	1.46972
195.337	1.55791
198.712	2.29773
202.086	2.74546
205.461	2.83513
208.836	2.85586
212.211	2.58276
215.586	2.07852
218.96	2.28886
222.335	1.4641
225.71	1.10581
229.085	1.81508
232.46	1.78101
235.834	1.61196
239.209	1.92865
242.584	2.01014
245.959	2.47455
249.334	3.31263
252.709	2.97726
256.083	2.44065
259.458	1.10717
262.833	1.14361
266.208	1.87967
269.583	1.94832
272.957	2.45896
276.332	2.77846
279.707	2.41712
283.082	2.41578
286.457	1.93762
289.832	1.7135
293.206	1.17809
296.581	1.40227
299.956	1.24035
303.331	0.844069
306.706	0.823124
310.08	1.5637
313.455	0.59355
316.83	0.72171
320.205	0.497794
323.58	0.331657
326.954	0.442357
330.329	0.255617
333.704	0.048474
337.079	0.034126
340.454	0.352916
343.829	0.232304
347.203	1.02238
350.578	0.460069
353.953	0.633106
357.328	0.929396
360.703	1.43121
364.077	1.74795
367.452	2.14488
370.827	3.10724
374.202	2.77571
377.577	2.21517
380.952	1.68096
384.326	1.49265
387.701	1.05698
391.076	0.901318
394.451	0.197231
397.826	0.592463
401.2	0.300963
404.575	0.164821
407.95	0.260848
411.325	0.039882
414.7	0.083704
418.075	0.344089
421.449	0.230539
424.824	0.085173
428.199	0.46714
431.574	1.04511
434.949	1.43222
438.323	2.15666
441.698	2.02149
445.073	1.71556
448.448	1.61648
451.823	1.39661
455.197	0.99182
458.572	1.00306
461.947	1.39364
465.322	1.57236
468.697	1.40592
472.072	1.91293
475.446	2.18173
478.821	2.80366
482.196	2.79616
485.571	2.84447
488.946	3.27598
492.32	3.3695
495.695	3.02355
499.07	2.71325
502.445	3.10005
505.82	2.6887
509.195	2.57439
512.569	2.19767
515.944	2.25329
519.319	1.71805
522.694	1.9676
526.068	1.79639
529.443	1.37793
532.818	1.37088
536.193	1.28343
539.568	0.800752
542.943	0.504698
546.317	0.645492
549.692	0.358884
553.067	0.25181
556.442	0.406544
559.817	0.147092
563.192	0.334654
566.566	0.01022
569.941	0.150035
573.316	0.208402
576.691	0.184585
580.066	0.009198
583.44	0.097909
586.815	0.102126
590.19	0.245655
593.565	0.10469
596.94	0.375571
600.314	0.212143
603.689	0.521111
607.064	0.155603
610.439	0.537066
613.814	0.561311
617.188	0.532481
620.563	0.536211
623.938	0.176641
627.313	0.175406
630.688	0.497661
634.063	0.278612
637.437	0.943998
640.812	0.461963
644.187	0.644177
647.562	0.329359
650.937	0.28009
654.312	0.812269
657.686	0.334122
661.061	0.1291
664.436	0.566144
667.811	0.677569
671.186	0.591283
674.56	0.558537
677.935	0.567815
681.31	0.347216
684.685	0.276775
688.06	0.304799
691.434	0.313684
694.809	0.139568
698.184	0.234487
701.559	0.177787
704.934	0.161131
708.308	0.06862
711.683	0.143541
715.058	0.49658
718.433	0.071407
721.808	0.134826
725.183	0.018088
728.557	0.231069
731.932	0.222891
735.307	0.405921
738.682	0.608629
742.057	0.130358
745.432	1.10805
748.806	1.31506
752.181	1.63964
755.556	2.1901
758.931	2.66863
762.306	3.20024
765.68	2.90818
769.055	3.06542
772.43	2.60379
775.805	2.25126
779.18	1.68894
782.554	1.54416
785.929	1.23658
789.304	0.715285
792.679	0.515998
796.054	0.36226
799.428	0.258586
802.803	0.629588
806.178	0.292371
809.553	0.030615
812.928	0.01776
816.303	0.644526
819.677	0.842286
823.052	1.18277
826.427	1.51038
829.802	2.20479
833.177	2.73703
836.552	2.91438
839.926	3.30049
843.301	3.44891
846.676	3.11223
850.051	2.54283
853.426	1.97708
856.8	1.78615
860.175	1.58831
863.55	1.20083
866.925	0.837944
870.3	0.723478
873.674	0.896817
877.049	0.97833
880.424	1.3572
883.799	1.4023
887.174	2.62776
890.548	2.48634
893.923	2.94198
897.298	2.69349
900.673	2.36295
904.048	1.975
907.423	1.538
910.797	0.820081
914.172	0.168796
917.547	0.325621
920.922	0.144342
924.297	0.157997
927.671	0.006279
931.046	0.187383
934.421	0.05018
937.796	0.150659
941.171	0.121649
944.545	0.053142
947.92	0.115253
951.295	0.244824
954.67	0.291009
958.045	0.237642
961.42	0.047833
964.794	0.581051
968.169	0.491346
971.544	0.150758
974.919	0.423593
978.294	0.733011
981.668	0.355295
985.043	0.521522
988.418	0.254305
991.793	0.473757
995.168	0.026544
998.543	0.299471
1001.92	0.140396
1005.29	0.093484
1008.67	0.391856
1012.04	0.438572
1015.42	0.571456
1018.79	0.400843
1022.17	0.335545
1025.54	0.449484
1028.92	0.446934
1032.29	0.005597
1035.67	0.227745
1039.04	0.298251
1042.41	0.266626
1045.79	0.467953
1049.16	0.804124
1052.54	0.299432
1055.91	0.190867
1059.29	0.16657
1062.66	0.233715
1066.04	0.687603
1069.41	0.019579
1072.79	0.245361
1076.16	0.368579
1079.54	0.220369
1082.91	0.431652
1086.29	0.394318
1089.66	0.024094
1093.04	0.157371
1096.41	0.63257
1099.79	0.189402
1103.16	0.251233
1106.54	0.111207
1109.91	0.062794
1113.29	0.036196
1116.66	0.395022
1120.04	0.357547
1123.41	0.178962
1126.79	0.044622
1130.16	0.126562
1133.54	0.232715
1136.91	0.245806
1140.29	0.347528
1143.66	0.075472
1147.03	0.111806
1150.41	0.520013
1153.78	0.299897
1157.16	0.231801
1160.53	0.334237
1163.91	0.068335
1167.28	0.282423
1170.66	0.154733
1174.03	0.290491
1177.41	0.115909
1180.78	0.468319
1184.16	0.052357
1187.53	0.134057
1190.91	0.282852
1194.28	0.308722
1197.66	0.124705
1201.03	0.200208
1204.41	0.088921
1207.78	0.371698
1211.16	0.304129
1214.53	0.530668
1217.91	0.330476
1221.28	0.372574
1224.65	0.45115
1228.03	0.227555
1231.4	0.231331
1234.78	0.117901
1238.15	0.248607
1241.53	0.301849
1244.9	0.283497
1248.28	0.334025
1251.65	0.259221
1255.03	0.386353
1258.4	0.467577
1261.78	0.266342
1265.15	0.65841
1268.53	0.256644
1271.9	0.489757
1275.28	0.498116
1278.65	0.509365
1282.03	0.003225
