Measurement: Raman, 780 nm, unoriented, Raman Data Processed
Mineral: Symplesite
Rruff sample: R130513
Ideal chemistry: Fe^2+^_3_(As^5+^O_4_)_2_8H_2_O
Locality: Mapimi, Durango, Mexico
Source: Rock Currier
Description: Dark green thick blades, 2-fold twin around [1 -1 0]
Raman shift (cm-1)	intensity
100.36	0
103.735	2.06892
107.109	5.2238
110.484	5.42685
113.859	8.27122
117.234	10.7786
120.609	15.6639
123.984	20.5567
127.358	20.1388
130.733	24.325
134.108	28.8643
137.483	33.7973
140.858	34.2076
144.232	32.1674
147.607	31.7832
150.982	23.1758
154.357	19.0015
157.732	14.905
161.107	13.0853
164.481	16.5509
167.856	12.1643
171.231	9.88998
174.606	5.22508
177.981	2.46239
181.355	0.679695
184.73	0.756828
188.105	3.58465
191.48	0.880188
194.855	0.32798
198.229	2.05404
201.604	4.09142
204.979	9.03789
208.354	10.9125
211.729	12.9698
215.103	13.835
218.478	13.2948
221.853	13.9864
225.228	13.8137
228.603	14.791
231.978	14.9529
235.352	15.2719
238.727	12.6145
242.102	9.57618
245.477	9.35021
248.852	7.5559
252.226	5.57373
255.601	6.18676
258.976	7.2365
262.351	8.19247
265.726	8.50487
269.101	7.9455
272.475	5.61439
275.85	5.30019
279.225	5.81702
282.6	4.7922
285.975	5.17199
289.349	4.58569
292.724	4.17871
296.099	4.49766
299.474	5.06145
302.849	2.89811
306.224	2.13548
309.598	1.18404
312.973	0.282692
316.348	0.866447
319.723	0.135933
323.098	1.9421
326.472	0.926956
329.847	3.23381
333.222	1.40251
336.597	1.93155
339.972	3.40056
343.346	5.2424
346.721	6.8565
350.096	6.78316
353.471	8.13392
356.846	8.00894
360.221	9.54202
363.595	11.2551
366.97	8.99152
370.345	10.5146
373.72	8.58783
377.095	8.84028
380.469	5.86468
383.844	6.51039
387.219	5.76016
390.594	2.56253
393.969	0.427582
397.344	0.202133
400.718	0.870224
404.093	0.040039
407.468	0.879982
410.843	0.047501
414.217	1.40721
417.592	3.14617
420.967	5.18477
424.342	5.94292
427.717	7.31184
431.092	9.68259
434.466	10.9511
437.841	12.9415
441.216	15.4384
444.591	14.388
447.966	14.5023
451.341	18.3083
454.715	19.882
458.09	23.4807
461.465	26.1916
464.84	32.5493
468.215	38.8274
471.589	45.8893
474.964	49.5075
478.339	49.3355
481.714	50.7162
485.089	45.2436
488.463	43.3209
491.838	36.3606
495.213	30.9831
498.588	25.8063
501.963	23.1802
505.337	18.2526
508.712	16.5358
512.087	14.5253
515.462	12.0446
518.837	10.6548
522.212	6.86205
525.586	5.71038
528.961	3.80941
532.336	4.25479
535.711	2.48433
539.086	2.24806
542.46	0.152199
545.835	0.311028
549.21	1.20187
552.585	1.1592
555.96	0.515205
559.335	1.38009
562.709	0.150253
566.084	0.270481
569.459	2.38522
572.834	0.082466
576.209	1.16831
579.583	0.047901
582.958	0.944565
586.333	1.18821
589.708	2.02993
593.083	1.99015
596.457	0.213562
599.832	2.79002
603.207	1.97245
606.582	2.72252
609.957	2.21833
613.332	4.09226
616.706	2.98152
620.081	3.60518
623.456	4.40433
626.831	2.59389
630.206	2.86649
633.58	2.91454
636.955	4.06611
640.33	3.8217
643.705	3.20982
647.08	2.55419
650.455	4.25177
653.829	3.81764
657.204	3.28117
660.579	1.11333
663.954	1.86316
667.329	1.08781
670.703	2.27951
674.078	1.71462
677.453	2.43715
680.828	2.49748
684.203	3.54827
687.577	1.73369
690.952	2.42436
694.327	2.88408
697.702	1.24048
701.077	2.39442
704.452	2.4707
707.826	0.428524
711.201	0.873665
714.576	1.40956
717.951	0.536167
721.326	0.268505
724.7	1.08418
728.075	0.197136
731.45	2.33691
734.825	1.43304
738.2	1.72566
741.574	0.76239
744.949	0.871014
748.324	1.21695
751.699	0.197948
755.074	0.487614
758.449	2.249
761.823	2.00279
765.198	1.26819
768.573	2.85759
771.948	4.33848
775.323	3.90959
778.697	4.68331
782.072	6.10475
785.447	4.88878
788.822	5.29867
792.197	4.19337
795.572	7.58604
798.946	8.10868
802.321	9.4611
805.696	9.91758
809.071	10.7158
812.446	9.84684
815.82	12.4836
819.195	12.9502
822.57	14.1018
825.945	16.0938
829.32	16.9803
832.694	20.687
836.069	22.0564
839.444	23.3352
842.819	26.1033
846.194	24.9788
849.569	23.053
852.943	22.0569
856.318	19.7478
859.693	18.0322
863.068	16.1658
866.443	15.1123
869.817	14.6158
873.192	11.7481
876.567	12.3821
879.942	11.5145
883.317	7.4505
886.692	6.65869
890.066	5.00559
893.441	4.45709
896.816	3.57825
900.191	1.69825
903.566	2.98021
906.94	1.24033
910.315	2.33071
913.69	0.941811
917.065	0.1619
920.44	0.414341
923.814	1.16663
927.189	0.908432
930.564	0.995998
933.939	0.924442
937.314	1.63161
940.689	1.08043
944.063	1.02594
947.438	0.288021
950.813	0.433933
954.188	1.70243
957.563	2.22901
960.937	3.07438
964.312	2.0464
967.687	3.54737
971.062	1.93392
974.437	2.88953
977.812	2.17995
981.186	4.42593
984.561	4.9338
987.936	1.79578
991.311	2.20437
994.686	2.15221
998.06	2.96233
1001.43	1.94349
1004.81	1.51984
1008.18	1.67849
1011.56	0.080385
1014.93	0.990578
1018.31	2.76495
1021.68	0.049669
1025.06	1.83441
1028.43	0.273365
1031.81	1.60483
1035.18	2.48464
1038.56	1.99908
1041.93	1.89521
1045.31	0.435041
1048.68	1.43898
1052.06	1.96677
1055.43	0.503109
1058.81	0.749249
1062.18	1.60422
1065.56	1.62769
1068.93	2.03072
1072.31	0.460491
1075.68	0.454473
1079.06	1.54497
1082.43	1.4349
1085.81	1.22152
1089.18	1.43372
1092.56	1.54615
1095.93	2.61692
1099.31	0.518305
1102.68	1.84899
1106.05	1.56799
1109.43	2.19693
1112.8	1.74846
1116.18	2.85376
1119.55	0.139271
1122.93	1.19601
1126.3	0.250713
1129.68	1.70407
1133.05	1.19784
1136.43	2.32391
1139.8	1.71091
1143.18	1.50025
1146.55	0.81674
1149.93	1.24361
1153.3	1.84418
1156.68	1.64302
1160.05	0.824865
1163.43	1.20059
1166.8	2.12412
1170.18	1.49564
1173.55	0.963949
1176.93	0.707571
1180.3	2.59996
1183.67	1.64291
1187.05	2.57024
1190.42	2.73218
1193.8	1.04405
1197.17	3.97331
1200.55	2.0301
1203.92	2.05494
1207.3	2.12925
1210.67	2.2153
1214.05	0.711359
1217.42	1.93285
1220.8	1.77781
1224.17	2.27985
1227.55	0.705181
1230.92	1.58875
1234.3	2.35566
1237.67	1.3689
1241.05	2.79029
1244.42	0.807949
1247.8	1.73579
1251.17	0.650053
1254.55	1.25905
1257.92	2.61498
1261.3	2.22595
1264.67	0.392357
1268.05	2.01783
1271.42	1.84324
1274.8	1.88952
1278.17	1.91243
1281.55	1.91862
