Measurement: Raman, 785 nm, unoriented, Raman Data Processed
Mineral: Szaibelyite
Rruff sample: R070498
Ideal chemistry: MgBO_2_(OH)
Locality: Stinson Beach, Marin County, California, USA
Source: James Shigley
Description: Matted aggregates of white fibrous crystals, associated with magnetite and chromite
Raman shift (cm-1)	intensity
158.522	0
161.415	241.888
164.308	284.286
167.2	337.754
170.093	228.415
172.986	18.1377
175.879	30.6133
178.771	57.9824
181.664	199.645
184.557	186.81
187.449	181.43
190.342	117.971
193.235	139.812
196.127	137.887
199.02	158.161
201.913	224.337
204.805	225.443
207.698	178.447
210.591	338.82
213.484	269.801
216.376	146.056
219.269	160.095
222.162	90.3672
225.054	130.355
227.947	117.814
230.84	112.615
233.732	2.49609
236.625	179.329
239.518	97.4336
242.411	57.8438
245.303	124.459
248.196	52.1084
251.089	158.871
253.981	77.0254
256.874	135.938
259.767	63.294
262.659	85.2764
265.552	56.6006
268.445	202.224
271.338	11.9268
274.23	21.7402
277.123	55.4062
280.016	57.1084
282.908	36.7236
285.801	28.7061
288.694	82.79
291.587	65.3164
294.479	181.759
297.372	166.638
300.265	102.614
303.157	62.8613
306.05	3.19336
308.943	63.3125
311.835	45.7666
314.728	43.4883
317.621	28.9521
320.514	180.352
323.406	169.519
326.299	234.935
329.192	195.916
332.084	19.0117
334.977	62.3965
337.87	9.23633
340.762	14.3232
343.655	101.675
346.548	56.0977
349.44	66.9189
352.333	111.318
355.226	39.7549
358.119	59.2949
361.011	75.5674
363.904	25.7441
366.797	104.874
369.689	85.6982
372.582	11.7227
375.475	51.4053
378.368	43.9424
381.26	160.062
384.153	143.803
387.046	29.8486
389.938	176.378
392.831	142.018
395.724	145.704
398.616	133.106
401.509	140.062
404.402	121.281
407.295	101.43
410.187	129.74
413.08	99.7031
415.973	84.9707
418.865	146.565
421.758	87.8369
424.651	21.4102
427.543	32.3691
430.436	38.0518
433.329	45
436.221	7.49219
439.114	93.2988
442.007	110.193
444.9	42.6065
447.792	25.2188
450.685	16.6074
453.578	5.30859
456.47	27.7217
459.363	45.8926
462.256	56.3027
465.149	73.1387
468.041	48.624
470.934	49.7871
473.827	3.14062
476.719	15.1709
479.612	117.558
482.505	135.467
485.397	231.595
488.29	109.756
491.183	197.164
494.075	204.143
496.968	106.886
499.861	113.836
502.754	58.8652
505.646	101.987
508.539	169.861
511.432	118.352
514.324	126.893
517.217	107.851
520.11	56.6406
523.003	104.257
525.895	73.0176
528.788	119.135
531.681	105.131
534.573	170.3
537.466	26.4219
540.359	70.0684
543.251	19.499
546.144	48.9961
549.037	15.4121
551.93	22.5381
554.822	21.415
557.715	48.335
560.608	47.9258
563.5	9.625
566.393	2.72266
569.286	54.3818
572.178	65.583
575.071	41.9336
577.964	4.01074
580.857	47.21
583.749	2.19824
586.642	51.2012
589.535	0.992188
592.427	6.02734
595.32	83.3682
598.213	11.2529
601.105	115.489
603.998	53.831
606.891	124.346
609.784	122.381
612.676	170.045
615.569	194.15
618.462	210.553
621.354	282.107
624.247	344.172
627.14	251.702
630.032	190.591
632.925	134.811
635.818	48.3184
638.711	92.8144
641.603	128.2
644.496	100.353
647.389	133.301
650.281	80.7549
653.174	103.413
656.067	112.763
658.959	83.5469
661.852	109.293
664.745	25.624
667.638	16.3926
670.53	17.0381
673.423	3.13184
676.316	9.39941
679.208	73.2656
682.101	41.3555
684.994	31.1445
687.886	93.9385
690.779	80.7598
693.672	24.0215
696.564	91.4287
699.457	35.1191
702.35	54.7773
705.243	115.147
708.135	50.6572
711.028	56.8154
713.921	55.0537
716.813	12.2539
719.706	58.7607
722.599	33.6025
725.491	9.98535
728.384	28.1836
731.277	17.0088
734.17	24.917
737.062	23.1807
739.955	65.2647
742.848	20.1875
745.74	88.2598
748.633	4.16992
751.526	35.8848
754.418	34.9141
757.311	10.8037
760.204	17.4453
763.097	31.2441
765.989	51.7441
768.882	33.3223
771.775	36.8213
774.667	24.9521
777.56	54.1768
780.453	14.0322
783.346	50.5967
786.238	54.5723
789.131	9.82324
792.024	37.1846
794.916	18.5107
797.809	41.8594
800.702	86.1455
803.594	46.0425
806.487	31.2388
809.38	79.1064
812.273	98.0327
815.165	55.8179
818.058	162.417
820.951	191.918
823.843	252.112
826.736	483.527
829.629	634.804
832.521	835.691
835.414	898.284
838.307	583.628
841.199	343.441
844.092	184.303
846.985	194.54
849.878	138.024
852.77	47.5684
855.663	96.7178
858.556	23.6943
861.448	29.1977
864.341	75.5176
867.234	43.5151
870.126	68.353
873.019	0.316406
875.912	111.312
878.805	29.9639
881.697	13.9692
884.59	55.5688
887.483	117.453
890.375	50.2505
893.268	71.1333
896.161	2.95996
899.053	39.3291
901.946	96.6094
904.839	24.7822
907.732	99.4033
910.624	43.939
913.517	82.9082
916.41	101.683
919.302	35.04
922.195	14.8296
925.088	51.0645
927.981	86.5039
930.873	58.5327
933.766	56.8643
936.659	95.1514
939.551	13.8433
942.444	47.1821
945.337	36.2744
948.229	19.7383
951.122	53.6641
954.015	41.4932
956.908	40.7764
959.8	22.8101
962.693	10.0991
965.586	52.4551
968.478	69.9399
971.371	71.4731
974.264	28.6689
977.156	19.022
980.049	33.8852
982.942	80.1069
985.835	63.1352
988.727	51.1685
991.62	89.1704
994.513	70.5918
997.405	52.4048
1000.3	77.9219
1003.19	23.5679
1006.08	90.9326
1008.98	52.7832
1011.87	15.4575
1014.76	52.1328
1017.65	9.4209
1020.55	78.4385
1023.44	19.6924
1026.33	53.394
1029.22	85.3989
1032.12	73.1187
1035.01	48.894
1037.9	11.6138
1040.8	140.936
1043.69	57.7988
1046.58	53.0127
1049.47	30.665
1052.37	22.3901
1055.26	51.8662
1058.15	56.1992
1061.05	27.8267
1063.94	50.123
1066.83	39.376
1069.72	20.8442
1072.62	99.147
1075.51	45.7231
1078.4	12.395
1081.29	25.5244
1084.19	15.8852
1087.08	1.6333
1089.97	70.0537
1092.86	7.08008
1095.76	17.8267
1098.65	39.2998
1101.54	34.9761
1104.43	23.5757
1107.33	46.7788
1110.22	63.2607
1113.11	34.0698
1116.01	76.8394
1118.9	73.6953
1121.79	68.6909
1124.68	43.7817
1127.58	63.9414
1130.47	78.2627
1133.36	17.8848
1136.26	20.0561
1139.15	16.2227
1142.04	41.6367
1144.93	86.8457
1147.83	15.5112
1150.72	31.501
1153.61	2.20654
1156.5	11.1797
1159.4	17.853
1162.29	42.4819
1165.18	29.3169
1168.08	67.1909
1170.97	69.7314
1173.86	45.7856
1176.75	87.9629
1179.64	102.543
1182.54	100.693
1185.43	55.4888
1188.32	130.085
1191.22	96.2754
1194.11	60.7529
1197	107.074
1199.89	52.419
1202.79	66.2158
1205.68	93.1245
1208.57	71.1616
1211.46	84.6909
1214.36	43.5996
1217.25	14.2398
1220.14	34.2412
1223.04	90.4346
1225.93	43.8574
1228.82	11.8701
1231.71	42.3145
1234.61	4.96338
1237.5	14.7441
1240.39	72.6265
1243.29	29.5698
1246.18	69.0723
1249.07	63.2085
1251.96	24.8403
1254.86	63.8852
1257.75	65.293
1260.64	10.5527
1263.53	23.7129
