Measurement: Raman, 785 nm, unoriented, Raman Data Processed
Mineral: Tainiolite
Rruff sample: R061070
Ideal chemistry: KLiMg_2_Si_4_O_10_F_2_
Locality: Mont Saint-Hilaire, Quebec, Canada
Source: Bob Downs
Description: Brown hexagonal prism
Raman shift (cm-1)	intensity
187.197	0
190.09	65.9981
192.983	81.3672
195.875	122.404
198.768	82.7949
201.661	178.447
204.553	275.455
207.446	122.318
210.339	109.518
213.232	57.416
216.124	124.158
219.017	214.137
221.91	490.435
224.802	474.592
227.695	300.772
230.588	134.31
233.48	75.3438
236.373	16.7266
239.266	36.502
242.159	137.537
245.051	154.164
247.944	118.801
250.837	80.6309
253.729	65.4121
256.622	41.1309
259.515	129.959
262.407	43.5918
265.3	57.9492
268.193	1.43555
271.086	59.8027
273.978	132.756
276.871	93.7852
279.764	130.065
282.656	92.7637
285.549	199.92
288.442	209.188
291.334	201.904
294.227	79.332
297.12	171.43
300.012	30.6191
302.905	93.2695
305.798	135.275
308.691	88.791
311.583	162.443
314.476	127.871
317.369	103.713
320.261	98.9316
323.154	158.703
326.047	241.981
328.94	212.082
331.832	219.721
334.725	60.4336
337.618	70.2383
340.51	60.1602
343.403	83.7598
346.296	38.7578
349.188	68.7832
352.081	134.469
354.974	245.516
357.866	165.068
360.759	248.926
363.652	160.529
366.545	226.555
369.437	15.1875
372.33	190.93
375.223	134.01
378.115	219.981
381.008	177.975
383.901	82.6641
386.793	0.476563
389.686	7.00781
392.579	98.0234
395.472	89.1426
398.364	113.812
401.257	87.8242
404.15	137.252
407.042	142.861
409.935	126.58
412.828	101.984
415.72	174.012
418.613	52.8203
421.506	91.0703
424.399	179.56
427.291	123.508
430.184	125.945
433.077	96.0664
435.969	163.16
438.862	91.4316
441.755	31.7637
444.647	104.828
447.54	58.373
450.433	163.801
453.325	124.225
456.218	92.2266
459.111	9.26367
462.004	125.644
464.896	9.81055
467.789	125.373
470.682	38.8613
473.574	99.4668
476.467	28.1816
479.36	48.4922
482.252	38.1641
485.145	103.266
488.038	161.434
490.931	145.248
493.823	244.578
496.716	213.764
499.609	171.51
502.501	49.4102
505.394	101.125
508.287	171.609
511.18	235.199
514.072	247.344
516.965	265.615
519.858	245.522
522.75	131.482
525.643	216.527
528.536	229.131
531.428	181.199
534.321	101.023
537.214	170.644
540.106	142.238
542.999	84.1231
545.892	82.8262
548.785	155.648
551.677	255.682
554.57	147.537
557.463	146.291
560.355	137.621
563.248	155.869
566.141	81.9609
569.034	99.3379
571.926	126.522
574.819	98.7637
577.712	117.064
580.604	120.853
583.497	149.404
586.39	85.8223
589.282	43.2344
592.175	44.6484
595.068	70.0762
597.96	54.8496
600.853	120
603.746	92.2129
606.639	45.5312
609.531	87.3809
612.424	9.15625
615.317	1.02734
618.209	58.8594
621.102	137.164
623.995	0.416016
626.888	20.6855
629.78	10.9336
632.673	58.3242
635.566	133.082
638.458	132.176
641.351	92.8535
644.244	60.2969
647.136	73.0117
650.029	51.8535
652.922	12.9922
655.814	72.5625
658.707	95.9551
661.6	30.7949
664.493	27.7754
667.385	64.0879
670.278	80.4883
673.171	40.6328
676.063	183.047
678.956	110.256
681.849	232.795
684.741	294.6
687.634	390.496
690.527	547.377
693.42	802.65
696.312	1111.18
699.205	1509.38
702.098	1453.87
704.99	1088.94
707.883	667.04
710.776	466.063
713.668	313.28
716.561	310.222
719.454	132.296
722.346	128.978
725.239	133.226
728.132	186.123
731.025	50.9023
733.917	54.377
736.81	198.205
739.703	89.8633
742.595	2.99414
745.488	82.543
748.381	23.6758
751.274	12.208
754.166	131.088
757.059	84.1172
759.952	74.293
762.844	52.1494
765.737	47.8516
768.63	75.2578
771.522	127.81
774.415	237.637
777.308	144.512
780.201	199.501
783.093	186.249
785.986	171.548
788.879	196.481
791.771	159.257
794.664	84.8027
797.557	106.275
800.449	104.405
803.342	51.669
806.235	131.024
809.128	49.1953
812.02	103.684
814.913	49.1367
817.806	140.991
820.698	121.167
823.591	41.0918
826.484	120.906
829.376	76.5654
832.269	69.3232
835.162	88.6943
838.054	69.2012
840.947	150.65
843.84	151.891
846.733	61.7256
849.625	82.8262
852.518	28.3262
855.411	1.60352
858.303	47.915
861.196	23.3525
864.089	8.85742
866.981	54.9082
869.874	31.6875
872.767	116.73
875.659	23.0615
878.552	29.3408
881.445	64.6113
884.338	95.959
887.23	3.19043
890.123	10.8184
893.016	60.3467
895.908	59.5185
898.801	141.434
901.694	58.415
904.587	111.557
907.479	40.6914
910.372	80.6221
913.265	2.68555
916.157	102.956
919.05	100.2
921.943	13.2842
924.835	20.0127
927.728	44.4014
930.621	51.5137
933.514	37.8281
936.406	116.409
939.299	83.208
942.192	41.501
945.084	85.6924
947.977	5.62305
950.87	23.085
953.763	59.5459
956.655	86.1641
959.548	74.7519
962.441	188.05
965.333	89.4902
968.226	117.504
971.119	88.7314
974.011	97.0732
976.904	110.075
979.797	85.9824
982.689	135.043
985.582	71.9014
988.475	99.7109
991.368	26.1963
994.26	59.1875
997.153	80.3076
1000.05	110.044
1002.94	20.4541
1005.83	118.884
1008.72	90.4228
1011.62	54.5938
1014.51	109.241
1017.4	57.6397
1020.29	45.4482
1023.19	24.0674
1026.08	58.0273
1028.97	31.709
1031.87	79.416
1034.76	52.6377
1037.65	79.9385
1040.54	39.4287
1043.44	35.8789
1046.33	11.582
1049.22	62.9736
1052.11	62.0283
1055.01	100.231
1057.9	110.179
1060.79	159.416
1063.68	25.2773
1066.58	66.7275
1069.47	7.24902
1072.36	95.9697
1075.26	63.2344
1078.15	74.4424
1081.04	175.534
1083.93	60.1592
1086.83	48.1904
1089.72	12.0332
1092.61	104.998
1095.51	105.178
1098.4	90.5478
1101.29	59.3057
1104.18	44.5742
1107.08	22.1182
1109.97	56.8408
1112.86	76.207
1115.75	30.25
1118.65	78.8369
1121.54	126.22
1124.43	25.9482
1127.32	47.1719
1130.22	142.783
1133.11	98.0107
1136	129.046
1138.89	124.77
1141.79	166.658
1144.68	163.353
1147.57	109.594
1150.47	123.057
1153.36	136.466
1156.25	96.0772
1159.14	35.0156
1162.04	16.4863
1164.93	15.5479
1167.82	58.0469
1170.71	102.819
1173.61	12.835
1176.5	65.6484
1179.39	80.5576
1182.29	121.717
1185.18	65.7998
1188.07	60.5166
1190.96	65.5332
1193.86	51.0215
1196.75	79.6221
1199.64	72.1035
1202.54	34.4453
1205.43	148.416
1208.32	77.1611
1211.21	108.926
1214.11	140.079
1217	78.5977
1219.89	104.623
1222.78	109.821
1225.68	72.5947
1228.57	98.5078
1231.46	35.6338
1234.35	50.0361
1237.25	37.2432
1240.14	23.7852
1243.03	1.94336
1245.92	165.348
1248.82	92.3193
1251.71	134.013
1254.6	192.8
1257.5	138.795
1260.39	110.481
1263.28	84.8984
1266.17	87.6553
1269.07	32.25
