Measurement: Raman, 532 nm, unoriented, Raman Data Processed
Mineral: Tainiolite
Rruff sample: R061070
Ideal chemistry: KLiMg_2_Si_4_O_10_F_2_
Locality: Mont Saint-Hilaire, Quebec, Canada
Source: Bob Downs
Description: Brown hexagonal prism
Raman shift (cm-1)	intensity
146.153	0
149.046	224.293
151.938	307.547
154.831	328.4
157.724	169.363
160.617	412.086
163.509	409.67
166.402	636.32
169.295	508.111
172.187	465.562
175.08	450.996
177.973	560.188
180.865	415.207
183.758	511.928
186.651	361.242
189.543	322.496
192.436	273.014
195.329	223.815
198.222	95.3613
201.114	23.0977
204.007	52.0293
206.9	121.262
209.792	16.5859
212.685	81.8262
215.578	209.596
218.47	381.76
221.363	365.228
224.256	319.674
227.149	307.938
230.041	237.789
232.934	38.043
235.827	18.0254
238.719	27.1387
241.612	181.01
244.505	263.557
247.398	189.715
250.29	175.644
253.183	158.461
256.076	184.555
258.968	188.361
261.861	179.889
264.754	22.4473
267.646	57.6758
270.539	140.451
273.432	183.375
276.325	281.984
279.217	215.379
282.11	248.293
285.003	235.756
287.895	339.361
290.788	426.516
293.681	312.35
296.573	307.644
299.466	275.914
302.359	289.981
305.252	186.961
308.144	165.353
311.037	149.408
313.93	251.426
316.822	233.185
319.715	264.772
322.608	297.154
325.5	458.711
328.393	437.572
331.286	177.258
334.178	66.5957
337.071	110.748
339.964	90.9238
342.857	56.3262
345.749	44.541
348.642	89.0918
351.535	70.2441
354.427	75.4336
357.32	124.67
360.213	305.143
363.105	346.977
365.998	320.533
368.891	367.848
371.784	252.705
374.676	217.621
377.569	118.711
380.462	82.6562
383.354	325.785
386.247	298.504
389.14	271.234
392.032	285.023
394.925	277.885
397.818	285.262
400.711	126.693
403.603	140.815
406.496	104.529
409.389	260.231
412.281	183.102
415.174	60.4551
418.067	32.8281
420.959	93.6172
423.852	180.236
426.745	151.332
429.637	135.293
432.53	51.2969
435.423	55.9395
438.316	84.3848
441.208	96.9688
444.101	162.994
446.994	118.725
449.886	129.435
452.779	6.85352
455.672	174.248
458.565	161.873
461.457	60.8379
464.35	40.584
467.243	58.2363
470.135	93.9981
473.028	9.75586
475.921	22.9824
478.813	51.7266
481.706	99.6465
484.599	72.2031
487.491	162.541
490.384	67.1523
493.277	119.609
496.17	63.7949
499.062	125.012
501.955	60.7852
504.848	214.504
507.74	77.0098
510.633	17.9277
513.526	67.7305
516.418	98.5801
519.311	262.42
522.204	354.137
525.097	322.33
527.989	206.629
530.882	67.0078
533.775	5.53711
536.667	22.7383
539.56	82.3594
542.453	273.842
545.346	352.682
548.238	332.447
551.131	387.863
554.024	314.66
556.916	169.658
559.809	302.414
562.702	444.945
565.594	453.801
568.487	523.771
571.38	410.051
574.273	483.158
577.165	508.932
580.058	493.836
582.951	721.711
585.843	673.059
588.736	655.912
591.629	623.035
594.521	693.279
597.414	616.719
600.307	325.387
603.199	436.715
606.092	390.891
608.985	380.547
611.878	542.637
614.77	416.522
617.663	427.65
620.556	503.875
623.448	461.537
626.341	595.254
629.234	540.787
632.126	351.9
635.019	41.9668
637.912	259.211
640.804	169.019
643.697	23.0215
646.59	203.543
649.483	171.795
652.375	172.981
655.268	253.752
658.161	154.357
661.053	404.934
663.946	440.393
666.839	578.283
669.731	594.106
672.624	439.188
675.517	451.668
678.41	577.91
681.302	751.852
684.195	927.875
687.088	1412.49
689.98	1721.56
692.873	2261.58
695.766	2712.62
698.659	3001.59
701.551	2849.34
704.444	2264.87
707.337	1557.26
710.229	1070.32
713.122	859.67
716.015	639.402
718.907	566.231
721.8	371.451
724.693	471.232
727.586	437.023
730.478	327.65
733.371	470.059
736.264	369.391
739.156	352.543
742.049	338.836
744.942	306.559
747.834	457.715
750.727	737.713
753.62	1139.88
756.513	718.846
759.405	793.988
762.298	833.494
765.191	898.586
768.083	868.381
770.976	833.439
773.869	810.139
776.761	631.205
779.654	615.174
782.547	533.764
785.439	595.389
788.332	716.066
791.225	444.191
794.118	413.578
797.01	244.527
799.903	384.215
802.796	10.293
805.688	8.12891
808.581	32.2305
811.474	97.5352
814.366	60.0117
817.259	141.371
820.152	607.352
823.045	1039.39
825.937	1035.64
828.83	1016.67
831.723	1134.05
834.615	1249.36
837.508	1126.56
840.401	939.441
843.293	778.992
846.186	963.812
849.079	800.18
851.972	742.09
854.864	606.359
857.757	554.637
860.65	600.144
863.542	539.676
866.435	589.41
869.328	270.484
872.221	318.875
875.113	372.129
878.006	388.047
880.899	270.824
883.791	248.172
886.684	281.129
889.577	276.422
892.469	461.457
895.362	359.859
898.255	112.359
901.147	55.4102
904.04	193.184
906.933	111.555
909.826	87.5234
912.718	9.23438
915.611	55.0156
918.504	89.4062
921.396	180.031
924.289	74.8867
927.182	159.598
930.074	276.203
932.967	206.406
935.86	50.7695
938.753	188.426
941.645	333.25
944.538	197.324
947.431	207.641
950.323	167.711
953.216	340.152
956.109	296.496
959.001	296.582
961.894	372.477
964.787	379.188
967.679	421.344
970.572	256.438
973.465	97.1094
976.358	159.785
979.25	61.0781
982.143	46.9102
985.036	75.8164
987.928	345.023
990.821	271.598
993.714	122.512
996.606	106.715
999.499	67.0859
1002.39	7.40234
1005.28	198.168
1008.18	134.832
1011.07	158.887
1013.96	181.996
1016.86	240.598
1019.75	241.262
1022.64	375.051
1025.53	429.883
1028.43	426.277
1031.32	340.246
1034.21	140.492
1037.1	189.383
1040	142.199
1042.89	243.418
1045.78	198.641
1048.67	147.238
1051.57	73.75
1054.46	146.293
1057.35	76.4961
1060.25	26.2422
1063.14	68.7773
1066.03	26.7617
1068.92	195.035
1071.82	400.059
1074.71	486.562
1077.6	333.691
1080.49	250.648
1083.39	167.012
1086.28	303.016
1089.17	98.2852
1092.07	145.293
1094.96	211.535
1097.85	9.05859
1100.74	90.1367
1103.64	0.09375
1106.53	132.992
1109.42	7.62109
1112.31	108.375
1115.21	354.559
1118.1	158.375
1120.99	268.652
1123.88	326.25
1126.78	319.902
1129.67	145.332
1132.56	179.551
1135.46	351.57
1138.35	312.617
1141.24	576.34
1144.13	381.387
1147.03	403.551
1149.92	277.156
1152.81	167.695
1155.7	263.289
1158.6	159.699
1161.49	205.797
1164.38	152.644
1167.28	183.062
1170.17	40.0742
1173.06	22.2266
1175.95	24.4492
1178.85	78.3516
1181.74	193.754
1184.63	275.168
1187.53	261.84
1190.42	283.461
1193.31	153.836
1196.2	70.4648
1199.1	150.336
1201.99	238.102
1204.88	325.496
1207.77	147.922
1210.67	262.348
1213.56	140.516
1216.45	282.367
1219.34	205.656
1222.24	256.703
1225.13	260.551
1228.02	904.606
1230.91	216.82
1233.81	110.832
1236.7	110.773
1239.59	27.9336
1242.49	99.7773
1245.38	40.2383
1248.27	74.4609
1251.16	140.707
1254.06	62.418
1256.95	49.1211
1259.84	56.7539
1262.73	154.324
1265.63	224.172
1268.52	302.644
1271.41	227.367
1274.31	267.543
1277.2	372.566
1280.09	407.324
1282.98	174.301
1285.88	54.0117
1288.77	84.2266
1291.66	85.2344
1294.55	60.6719
1297.45	179.637
1300.34	0
