Measurement: Raman, 780 nm, unoriented, Raman Data Processed
Mineral: Takeuchiite
Rruff sample: R100047
Ideal chemistry: Mg_2_Mn^3+^O_2_BO_3_
Locality: Langban, Filipstad, Varmland, Sweden
Source: William W Pinch (Large sample), Don Doell (Small sample)
Description: Black thin blades embedded in calcite
Raman shift (cm-1)	intensity
147.459	0
150.351	0.41243
153.244	1.05362
156.137	1.7152
159.03	1.9908
161.922	2.10149
164.815	0.026665
167.708	3.54034
170.6	3.12603
173.493	2.7752
176.386	1.66269
179.278	4.56189
182.171	2.90041
185.064	2.61557
187.957	0.947388
190.849	4.01847
193.742	1.80882
196.635	1.29378
199.527	0.949348
202.42	0.513222
205.313	0.566689
208.205	1.97923
211.098	1.53554
213.991	0.960587
216.884	1.88072
219.776	0.013641
222.669	0.975403
225.562	0.885605
228.454	1.8916
231.347	0.597771
234.24	1.93262
237.132	2.64337
240.025	3.17664
242.918	3.51618
245.811	4.6408
248.703	4.20734
251.596	2.22739
254.489	1.85276
257.381	3.12904
260.274	2.7861
263.167	1.7737
266.059	4.68816
268.952	2.34395
271.845	4.84557
274.738	6.41901
277.63	3.44058
280.523	5.25858
283.416	8.93946
286.308	6.5826
289.201	9.03447
292.094	10.0604
294.986	8.469
297.879	12.7499
300.772	13.3105
303.665	14.5907
306.557	13.9648
309.45	14.4327
312.343	13.2747
315.235	14.59
318.128	13.0135
321.021	9.93588
323.913	12.4392
326.806	7.76453
329.699	8.29904
332.592	4.99796
335.484	4.76905
338.377	4.48339
341.27	5.26347
344.162	0.317448
347.055	0.452026
349.948	1.65725
352.841	1.01785
355.733	1.16636
358.626	0.342171
361.519	0.171604
364.411	0.341125
367.304	1.3975
370.197	1.2263
373.089	2.06617
375.982	0.762959
378.875	1.24059
381.767	1.25934
384.66	1.28496
387.553	5.55945
390.446	2.61987
393.338	4.61218
396.231	0.20763
399.124	2.90578
402.016	1.06116
404.909	3.23884
407.802	1.61946
410.695	0.818378
413.587	4.95744
416.48	0.882076
419.373	1.72644
422.265	3.5521
425.158	2.8112
428.051	6.38267
430.943	4.1339
433.836	4.95392
436.729	4.77972
439.622	7.61217
442.514	8.44555
445.407	7.73894
448.3	7.30553
451.192	8.13035
454.085	6.45591
456.978	4.37341
459.87	5.55037
462.763	3.60978
465.656	2.88998
468.548	4.80479
471.441	4.79084
474.334	3.09076
477.227	2.64779
480.119	3.18918
483.012	1.20535
485.905	1.21497
488.797	0.339935
491.69	0.181881
494.583	0.629993
497.476	1.0356
500.368	1.06554
503.261	0.023224
506.154	0.571873
509.046	1.18398
511.939	1.7882
514.832	0.35857
517.724	1.55001
520.617	0.391613
523.51	0.490841
526.403	1.40845
529.295	2.09483
532.188	3.9156
535.081	2.6698
537.973	3.76448
540.866	2.698
543.759	5.18999
546.651	4.73438
549.544	5.88287
552.437	5.37638
555.33	6.20307
558.222	5.65681
561.115	6.7407
564.008	4.5968
566.9	6.14403
569.793	5.04184
572.686	4.31376
575.578	4.58196
578.471	3.02687
581.364	5.74099
584.256	4.37529
587.149	4.87684
590.042	5.21114
592.935	5.18047
595.827	5.50755
598.72	7.25087
601.613	4.02144
604.505	7.28261
607.398	6.07815
610.291	5.42036
613.183	7.12664
616.076	5.06281
618.969	3.91557
621.862	5.23498
624.754	8.33666
627.647	5.55097
630.54	5.23237
633.432	5.34513
636.325	7.54247
639.218	6.46284
642.111	8.07412
645.003	7.90433
647.896	9.03318
650.789	7.08249
653.681	7.7063
656.574	7.8574
659.467	7.71106
662.359	7.87038
665.252	9.23026
668.145	7.822
671.038	9.59685
673.93	6.83826
676.823	6.2029
679.716	7.06406
682.608	4.69492
685.501	7.09588
688.394	4.42264
691.286	4.05798
694.179	4.95571
697.072	3.65209
699.965	2.26477
702.857	2.29097
705.75	1.77219
708.643	0.192638
711.535	0.706417
714.428	0.978039
717.321	0.07151
720.213	0.930508
723.106	2.03854
725.999	0.154228
728.891	0.134998
731.784	1.10013
734.677	0.513271
737.57	2.34604
740.462	0.170826
743.355	1.89502
746.248	0.236622
749.14	2.94395
752.033	0.351788
754.926	1.91818
757.818	4.13743
760.711	2.41188
763.604	3.60936
766.497	3.99527
769.389	5.66265
772.282	3.3663
775.175	2.60171
778.067	2.86509
780.96	1.60858
783.853	0.83149
786.745	4.33698
789.638	3.87363
792.531	0.116432
795.424	1.56527
798.316	0.897408
801.209	4.54089
804.102	2.12405
806.994	4.46978
809.887	3.5924
812.78	3.68769
815.673	2.33111
818.565	2.5688
821.458	3.36925
824.351	3.58325
827.243	2.41967
830.136	3.34995
833.029	2.86526
835.921	4.43444
838.814	4.34817
841.707	4.37402
844.6	1.83133
847.492	5.52114
850.385	4.79064
853.278	3.6091
856.17	5.47015
859.063	4.79875
861.956	4.20557
864.848	3.91489
867.741	4.44043
870.634	3.79143
873.527	3.90939
876.419	1.204
879.312	2.50184
882.205	2.23596
885.097	3.52249
887.99	1.08787
890.883	1.65118
893.775	1.37455
896.668	0.190197
899.561	1.38802
902.454	0.495518
905.346	0.919376
908.239	1.46536
911.132	1.71032
914.024	0.467695
916.917	0.167452
919.81	0.360071
922.702	1.60468
925.595	1.95628
928.488	0.759394
931.381	2.37922
934.273	2.36711
937.166	2.99373
940.059	1.10615
942.951	1.62715
945.844	1.90888
948.737	3.64332
951.63	3.00636
954.522	1.89377
957.415	1.29964
960.308	2.53541
963.2	1.43837
966.093	2.89209
968.986	0.491339
971.878	1.63066
974.771	1.39786
977.664	1.72755
980.557	2.03394
983.449	1.99044
986.342	2.33193
989.235	0.239445
992.127	3.30913
995.02	1.63574
997.913	0.93692
1000.8	2.77661
1003.7	0.544418
1006.59	2.43318
1009.48	1.12586
1012.38	2.4739
1015.27	1.94263
1018.16	2.8615
1021.05	3.9865
1023.95	2.85618
1026.84	1.05931
1029.73	0.632397
1032.62	2.72184
1035.52	2.53544
1038.41	2.20637
1041.3	2.28778
1044.2	4.42953
1047.09	1.4964
1049.98	1.76832
1052.87	2.34194
1055.77	1.66469
1058.66	0.669165
1061.55	2.74984
1064.44	1.43225
1067.34	1.35398
1070.23	0.798548
1073.12	2.433
1076.02	2.12949
1078.91	0.464912
1081.8	2.56477
1084.69	1.96849
1087.59	1.02646
1090.48	0.757088
1093.37	1.93268
1096.27	1.53447
1099.16	1.29526
1102.05	1.23437
1104.94	1.86264
1107.84	0.54826
1110.73	0.23114
1113.62	0.231003
1116.51	0.531698
1119.41	1.23771
1122.3	0.902063
1125.19	0.128447
1128.08	0.050697
1130.98	0.398586
1133.87	1.12873
1136.76	1.91073
1139.65	1.25683
1142.55	0.892857
1145.44	0.709265
1148.33	0.456381
1151.23	1.40193
1154.12	0.943111
1157.01	1.84598
1159.9	1.92511
1162.8	1.23274
1165.69	4.83385
1168.58	1.98469
1171.47	3.1746
1174.37	2.54443
1177.26	2.28178
1180.15	4.74044
1183.05	1.941
1185.94	2.43779
1188.83	1.53218
1191.72	3.78763
1194.62	3.73426
1197.51	0.34306
1200.4	2.26964
1203.29	3.04167
1206.19	1.18833
1209.08	2.50835
1211.97	0.017786
1214.87	1.43086
1217.76	4.32283
1220.65	2.61422
1223.54	2.11746
1226.44	1.23971
1229.33	3.21592
1232.22	0.961866
1235.11	0.661755
1238.01	2.51915
1240.9	2.48709
1243.79	1.91092
1246.68	2.04612
1249.58	1.87094
1252.47	1.38215
1255.36	2.29324
1258.26	1.55486
1261.15	0.926611
1264.04	3.32378
1266.93	2.4123
1269.83	0.76895
1272.72	3.40449
1275.61	3.21864
1278.51	3.2826
1281.4	1.70991
1284.29	0.516823
