Measurement: Raman, 532 nm, unoriented, Raman Data Processed
Mineral: Takeuchiite
Rruff sample: R100047
Ideal chemistry: Mg_2_Mn^3+^O_2_BO_3_
Locality: Langban, Filipstad, Varmland, Sweden
Source: William W Pinch (Large sample), Don Doell (Small sample)
Description: Black thin blades embedded in calcite
Raman shift (cm-1)	intensity
90.4922	0
93.867	2.25402
97.2418	0.720731
100.617	2.26778
103.992	2.02777
107.366	3.90666
110.741	1.79658
114.116	4.1552
117.491	1.74026
120.865	1.4093
124.24	0.059387
127.615	0.524647
130.99	0.947226
134.365	0.424837
137.74	1.04068
141.114	1.48331
144.489	1.57632
147.864	5.65162
151.239	8.10796
154.614	12.5535
157.988	12.009
161.363	12.5272
164.738	16.1501
168.113	15.6484
171.488	14.8561
174.863	14.1848
178.237	13.3157
181.612	11.7953
184.987	10.0709
188.362	9.55962
191.737	10.9582
195.112	8.06979
198.486	6.87964
201.861	6.5298
205.236	6.11336
208.611	5.40445
211.986	5.04336
215.36	4.0368
218.735	3.98117
222.11	3.91046
225.485	3.06365
228.86	3.70278
232.234	3.37674
235.609	3.3816
238.984	3.08361
242.359	3.14937
245.734	1.60911
249.109	1.53292
252.483	2.59038
255.858	2.62778
259.233	2.37547
262.608	0.62434
265.983	0.015837
269.358	0.556417
272.732	0.22851
276.107	1.07803
279.482	0.618919
282.857	1.65806
286.232	0.921961
289.606	1.4681
292.981	0.791037
296.356	2.7368
299.731	2.26654
303.106	4.50413
306.481	4.975
309.855	4.71874
313.23	6.24789
316.605	7.16735
319.98	5.40603
323.355	6.44129
326.729	5.4046
330.104	6.39445
333.479	5.37497
336.854	4.34389
340.229	3.53512
343.603	1.25795
346.978	0.458696
350.353	0.392431
353.728	1.10662
357.103	0.301188
360.478	0.373951
363.852	0.797918
367.227	0.850109
370.602	1.57186
373.977	0.516396
377.352	1.8515
380.726	0.83622
384.101	1.35786
387.476	1.76503
390.851	2.18843
394.226	0.359228
397.601	1.96344
400.975	0.35681
404.35	1.444
407.725	0.699297
411.1	0.210825
414.475	2.13911
417.849	1.73893
421.224	1.14566
424.599	1.71588
427.974	2.85801
431.349	2.99543
434.724	2.67038
438.098	2.88843
441.473	3.84962
444.848	3.21434
448.223	3.72062
451.598	4.65402
454.972	4.68778
458.347	4.7614
461.722	3.09041
465.097	3.8259
468.472	5.41133
471.846	5.22124
475.221	2.70742
478.596	3.07169
481.971	3.09327
485.346	2.56721
488.721	1.16512
492.095	1.3678
495.47	1.52524
498.845	1.16087
502.22	1.5257
505.595	0.97418
508.969	0.75728
512.344	0.480406
515.719	0.017693
519.094	0.858009
522.469	1.10132
525.844	0.620045
529.218	1.17901
532.593	0.030716
535.968	0.298359
539.343	0.437979
542.718	1.04741
546.092	2.21212
549.467	1.74473
552.842	1.04547
556.217	2.6279
559.592	2.64292
562.967	3.6767
566.341	4.18861
569.716	3.71511
573.091	4.26258
576.466	3.53098
579.841	2.74277
583.216	5.92489
586.59	6.57048
589.965	8.24727
593.34	8.03986
596.715	9.84854
600.09	10.9825
603.464	10.0891
606.839	10.537
610.214	10.6597
613.589	10.9982
616.964	10.8504
620.338	10.5795
623.713	11.1481
627.088	12.2913
630.463	12.0048
633.838	12.3586
637.212	12.4806
640.587	12.6353
643.962	14.0775
647.337	12.9008
650.712	13.8733
654.087	14.6848
657.461	15.2098
660.836	14.7174
664.211	15.8584
667.586	14.6729
670.961	14.8933
674.335	14.033
677.71	13.2229
681.085	12.1207
684.46	9.57934
687.835	11.0648
691.21	9.51918
694.584	9.08995
697.959	9.653
701.334	8.52157
704.709	7.23227
708.084	6.40932
711.458	3.86863
714.833	1.47252
718.208	0.065447
721.583	0.313852
724.958	0.831989
728.332	0.743406
731.707	0.268244
735.082	0.129126
738.457	0.410679
741.832	0.480715
745.207	0.430548
748.581	0.522245
751.956	1.64364
755.331	0.431156
758.706	2.01842
762.081	3.02751
765.456	2.12814
768.83	3.32117
772.205	4.59916
775.58	2.80201
778.955	3.70303
782.33	3.50704
785.704	3.03527
789.079	2.87921
792.454	1.96532
795.829	2.32474
799.204	1.51977
802.578	2.38043
805.953	2.53316
809.328	1.74238
812.703	1.04901
816.078	1.94193
819.453	1.70669
822.827	1.84339
826.202	1.13288
829.577	1.44533
832.952	1.67459
836.327	1.06399
839.702	0.654492
843.076	0.622666
846.451	1.75442
849.826	0.059917
853.201	1.82935
856.576	2.24669
859.95	0.135749
863.325	2.28165
866.7	0.858106
870.075	1.88641
873.45	1.21
876.824	1.26769
880.199	1.16966
883.574	0.017318
886.949	0.371866
890.324	0.79722
893.698	0.851126
897.073	0.900935
900.448	0.828751
903.823	0.396867
907.198	0.920169
910.573	0.903015
913.947	1.20147
917.322	0.857164
920.697	0.768535
924.072	0.678507
927.447	1.72475
930.822	2.15515
934.196	2.87643
937.571	1.64775
940.946	1.73889
944.321	1.88193
947.696	1.84761
951.07	2.45613
954.445	2.20576
957.82	1.96061
961.195	1.5883
964.57	1.30483
967.944	1.98985
971.319	0.782173
974.694	1.31339
978.069	0.748355
981.444	0.038301
984.819	0.096578
988.193	0.985077
991.568	1.47323
994.943	1.41153
998.318	0.445729
1001.69	0.280162
1005.07	1.15549
1008.44	0.546715
1011.82	0.422112
1015.19	0.283173
1018.57	1.25465
1021.94	0.601482
1025.32	0.482692
1028.69	0.77604
1032.07	2.25722
1035.44	1.7415
1038.82	0.989202
1042.19	0.78
1045.57	1.33332
1048.94	1.42961
1052.32	1.4804
1055.69	1.00738
1059.07	0.706271
1062.44	1.11887
1065.81	1.54321
1069.19	0.255782
1072.56	0.652691
1075.94	0.461614
1079.31	0.559843
1082.69	0.96279
1086.06	1.31083
1089.44	0.64427
1092.81	0.755751
1096.19	0.542206
1099.56	0.655554
1102.94	0.314558
1106.31	0.222647
1109.69	0.409022
1113.06	0.058964
1116.44	0.546292
1119.81	0.504933
1123.19	0.450501
1126.56	0.093181
1129.94	0.351293
1133.31	0.923944
1136.68	0.467809
1140.06	0.019242
1143.43	0.461357
1146.81	0.780478
1150.18	0.242548
1153.56	0.659617
1156.93	1.33483
1160.31	0.022199
1163.68	0.707747
1167.06	0.021498
1170.43	1.3759
1173.81	1.31749
1177.18	1.18312
1180.56	1.14759
1183.93	0.867418
1187.31	0.727216
1190.68	1.27104
1194.06	1.91396
1197.43	0.979744
1200.81	1.41257
1204.18	0.046762
1207.56	1.48557
1210.93	0.035326
1214.31	1.57333
1217.68	1.99759
1221.06	0.728768
1224.43	1.81604
1227.81	1.53366
1231.18	1.33353
1234.56	1.90578
1237.93	1.45987
1241.31	2.63381
1244.68	2.18459
1248.05	1.61374
1251.43	1.04188
1254.8	2.07433
1258.18	1.34107
1261.55	1.90599
1264.93	1.32451
1268.3	2.61994
1271.68	1.63928
1275.05	0.784687
1278.43	0.035465
1281.8	1.45143
1285.18	1.75925
1288.55	1.05545
1291.93	1.43854
1295.3	1.4286
1298.68	1.02072
1302.05	0.086994
