Measurement: Raman, 532 nm, unoriented, Raman Data Processed
Mineral: Taramite
Rruff sample: R070238
Ideal chemistry: Na(NaCa)(Mg_3_Al_2_)(Si_6_Al_2_)O_22_(OH)_2_
Locality: Ilmen Mts, Chelyabinsk Oblast', Urals Region, Russia
Source: Michael Scott
Description: Lustrous black crystals in matrix
Raman shift (cm-1)	intensity
163.161	0
166.054	0.62146
168.946	25.7357
171.839	40.5435
174.732	14.9542
177.625	29.1133
180.517	31.7225
183.41	20.8574
186.303	15.339
189.195	36.3193
192.088	23.8663
194.981	47.9629
197.874	55.6614
200.766	76.0316
203.659	52.9559
206.552	32.731
209.444	50.8939
212.337	26.7959
215.23	17.7653
218.122	32.8069
221.015	34.8159
223.908	44.8945
226.8	5.41345
229.693	11.0835
232.586	23.3306
235.479	10.8577
238.371	74.637
241.264	47.3203
244.157	88.1808
247.049	94.3939
249.942	88.7847
252.835	102.72
255.727	70.2168
258.62	71.3523
261.513	52
264.406	69.7465
267.298	32.9301
270.191	63.0856
273.084	87.7202
275.976	115.495
278.869	98.2955
281.762	117.458
284.655	136.027
287.547	141.336
290.44	117.99
293.333	162.121
296.225	131.811
299.118	116.353
302.011	89.5173
304.904	109.852
307.796	56.3051
310.689	54.5739
313.582	27.1926
316.474	4.63672
319.367	11.0265
322.26	47.2688
325.152	45.9391
328.045	37.3293
330.938	59.2559
333.83	47.2966
336.723	69.656
339.616	94.8845
342.509	107.597
345.401	144.94
348.294	132.914
351.187	125.608
354.079	131.091
356.972	107.848
359.865	102.84
362.757	110.272
365.65	47.633
368.543	70.5196
371.436	27.9271
374.328	51.3499
377.221	36.2233
380.114	42.7259
383.006	17.3565
385.899	18.5606
388.792	27.4354
391.685	0.922852
394.577	16.5582
397.47	6.57642
400.363	21.2976
403.255	21.5554
406.148	6.55206
409.041	8.28857
411.933	85.7595
414.826	25.9968
417.719	48.5539
420.611	67.9479
423.504	97.3359
426.397	94.9226
429.29	99.2767
432.182	100.32
435.075	68.9669
437.968	67.3885
440.86	58.0907
443.753	62.1059
446.646	69.3359
449.538	48.4458
452.431	26.0813
455.324	18.4992
458.217	27.3887
461.109	23.2112
464.002	9.86365
466.895	11.3762
469.787	31.5169
472.68	1.93683
475.573	62.3723
478.466	33.3133
481.358	19.874
484.251	60.4926
487.144	85.256
490.036	79.7377
492.929	108.361
495.822	147.339
498.714	152.247
501.607	146.124
504.5	160.127
507.393	180.672
510.285	204.856
513.178	230.662
516.071	271.445
518.963	333.203
521.856	373.253
524.749	421.755
527.641	445.462
530.534	486.309
533.427	509.831
536.32	434.941
539.212	408.774
542.105	417.72
544.998	360.676
547.89	391.367
550.783	317.852
553.676	305.146
556.568	298.117
559.461	265.349
562.354	221.864
565.247	229.571
568.139	162.864
571.032	169.933
573.925	139.42
576.817	120.746
579.71	102.358
582.603	115.457
585.495	39.9481
588.388	13.6597
591.281	11.8126
594.174	16.8154
597.066	0.652893
599.959	11.0948
602.852	0.328308
605.744	0.307556
608.637	14.1303
611.53	18.312
614.423	3.76898
617.315	25.7919
620.208	33.9769
623.101	5.95862
625.993	40.715
628.886	30.8583
631.779	41.609
634.671	42.1281
637.564	49.1022
640.457	47.5748
643.35	82.0858
646.242	56.9279
649.135	75.2396
652.028	70.2748
654.92	89.2016
657.813	71.9046
660.706	42.5475
663.598	47.7712
666.491	32.8268
669.384	19.0071
672.277	26.0945
675.169	33.1644
678.062	36.9956
680.955	30.0934
683.847	41.4594
686.74	25.7181
689.633	19.408
692.525	8.2456
695.418	2.89893
698.311	5.38007
701.204	8.95898
704.096	47.5052
706.989	30.575
709.882	7.35706
712.774	47.1734
715.667	31.2588
718.56	63.6373
721.452	68.4183
724.345	90.8723
727.238	86.2607
730.131	101.036
733.023	95.6125
735.916	124.209
738.809	112.293
741.701	112.873
744.594	101.737
747.487	110.516
750.38	115.35
753.272	122.662
756.165	128.848
759.058	137.883
761.95	147.325
764.843	173.061
767.736	166.994
770.628	200.349
773.521	185.878
776.414	215.246
779.307	213.962
782.199	208.386
785.092	158.971
787.985	150.511
790.877	115.178
793.77	104.204
796.663	49.7526
799.555	61.0317
802.448	37.8632
805.341	19.5666
808.234	11.2137
811.126	21.8867
814.019	16.1677
816.912	6.64398
819.804	8.86182
822.697	14.2855
825.59	33.2216
828.482	2.87689
831.375	12.2608
834.268	12.6639
837.16	22.0318
840.053	15.4335
842.946	36.866
845.839	47.2064
848.731	30.0674
851.624	52.8057
854.517	72.8126
857.409	61.0549
860.302	93.7124
863.195	78.4114
866.087	67.4342
868.98	101.843
871.873	105.151
874.766	79.5099
877.658	95.4518
880.551	65.2167
883.444	32.5142
886.337	85.0121
889.229	61.1267
892.122	33.9863
895.015	63.4804
897.907	18.3132
900.8	12.8203
903.693	41.6395
906.585	25.6897
909.478	44.6807
912.371	27.0905
915.264	11.3828
918.156	41.2069
921.049	48.2661
923.942	78.2439
926.834	94.8897
929.727	143.748
932.62	121.33
935.512	172.668
938.405	229.456
941.298	185.237
944.191	233.934
947.083	207.083
949.976	184.449
952.869	170.269
955.761	167.535
958.654	155.339
961.547	81.1702
964.439	120.555
967.332	76.3307
970.225	85.9875
973.117	79.43
976.01	73.0995
978.903	79.6495
981.796	34.402
984.688	21.8403
987.581	42.1226
990.474	4.7301
993.366	10.1334
996.259	10.0398
999.152	9.59912
1002.04	39.2245
1004.94	9.74463
1007.83	13.9597
1010.72	7.50403
1013.62	22.2426
1016.51	38.6551
1019.4	6.16003
1022.29	7.85632
1025.19	0.695801
1028.08	2.02563
1030.97	6.98035
1033.86	8.81799
1036.76	28.5568
1039.65	42.4392
1042.54	33.444
1045.43	33.3928
1048.33	24.6005
1051.22	24.4136
1054.11	63.1189
1057.01	65.7361
1059.9	67.825
1062.79	42.4835
1065.68	43.3179
1068.58	65.5885
1071.47	25.5715
1074.36	50.3748
1077.26	21.3882
1080.15	45.8118
1083.04	47.0867
1085.93	35.6036
1088.83	43.4117
1091.72	36.285
1094.61	84.6914
1097.5	45.2894
1100.4	38.9056
1103.29	25.1295
1106.18	27.2872
1109.07	27.2039
1111.97	8.32355
1114.86	0.484375
1117.75	28.7225
1120.64	23.6617
1123.54	16.7273
1126.43	18.5107
1129.32	23.0719
1132.22	15.3497
1135.11	53.4429
1138	30.2714
1140.89	42.6122
1143.79	10.5138
1146.68	41.8416
1149.57	30.9003
1152.46	50.6649
1155.36	44.0207
1158.25	40.431
1161.14	26.3956
1164.04	44.9952
1166.93	48.0746
1169.82	41.0703
1172.71	44.1575
1175.61	71.1976
1178.5	35.3652
1181.39	19.2499
1184.29	30.2242
1187.18	9.39624
1190.07	3.00854
1192.96	18.0115
1195.86	25.4941
1198.75	26.3999
1201.64	36.2142
1204.53	8.36047
1207.43	73.041
1210.32	47.1734
1213.21	29.4109
1216.1	39.1368
1219	55.8224
1221.89	40.3011
1224.78	28.4678
1227.67	53.4071
1230.57	29.9853
1233.46	14.2602
1236.35	30.6957
1239.25	24.1656
1242.14	42.0941
1245.03	17.499
1247.92	16.7643
1250.82	24.5175
1253.71	31.1177
1256.6	38.9176
1259.49	28.3059
1262.39	6.79126
1265.28	16.7579
1268.17	54.7255
1271.07	19.2728
1273.96	14.305
1276.85	5.18646
1279.74	29.7068
1282.64	8.3548
1285.53	26.85
1288.42	25.641
1291.32	13.7901
1294.21	11.3368
1297.1	25.7834
1299.99	3.45587
1302.88	11.272
1305.78	20.2184
1308.67	5.7688
1311.56	23.3803
1314.46	3.3064
