Measurement: Raman, 532 nm, unoriented, Raman Data Processed
Mineral: Taramellite
Rruff sample: R110043
Ideal chemistry: Ba_4_(Fe^3+^,Ti^4+^)_4_O_2_[B_2_Si_8_O_27_]Cl_0-1_
Locality: Big Creek, Fresno County, California, USA
Source: William W Pinch
Description: Reddish brown blocky crystals frozen in quartz
Raman shift (cm-1)	intensity
177.273	0
180.166	8.21373
183.059	1.30441
185.951	7.85301
188.844	5.63098
191.737	0.831345
194.629	8.05286
197.522	11.3525
200.415	11.2174
203.308	8.39101
206.2	13.5273
209.093	15.1564
211.986	9.06168
214.878	9.87424
217.771	0.246841
220.664	7.8123
223.556	4.86844
226.449	8.2477
229.342	1.36894
232.234	3.33252
235.127	3.11362
238.02	2.18083
240.913	1.8215
243.805	9.94646
246.698	13.2299
249.591	18.1258
252.483	22.2696
255.376	18.2383
258.269	25.3736
261.161	27.311
264.054	30.6558
266.947	39.0095
269.84	45.6962
272.732	49.1913
275.625	58.7377
278.518	61.8661
281.41	52.0227
284.303	40.1411
287.196	33.4905
290.089	19.6878
292.981	19.2318
295.874	7.33734
298.767	0.357468
301.659	5.00835
304.552	12.3879
307.445	7.0645
310.337	18.5884
313.23	12.3102
316.123	12.7739
319.015	17.018
321.908	23.3549
324.801	21.5283
327.694	21.4806
330.586	28.5446
333.479	32.7875
336.372	35.9062
339.264	38.5622
342.157	42.4863
345.05	52.1141
347.942	49.7352
350.835	53.0223
353.728	66.033
356.621	68.26
359.513	71.4601
362.406	73.1015
365.299	74.0495
368.191	69.6389
371.084	56.13
373.977	46.8565
376.87	37.4772
379.762	32.7172
382.655	25.8389
385.548	19.1854
388.44	18.3347
391.333	16.1847
394.226	14.5882
397.118	8.84958
400.011	8.11914
402.904	0.66507
405.796	2.88597
408.689	3.76781
411.582	7.49747
414.475	6.56197
417.367	1.23143
420.26	2.30818
423.153	7.97926
426.045	11.3505
428.938	17.8832
431.831	30.9872
434.724	29.7913
437.616	30.1276
440.509	29.448
443.402	33.0882
446.294	36.5503
449.187	34.7109
452.08	36.4459
454.972	37.8815
457.865	44.9615
460.758	54.5723
463.651	69.0945
466.543	70.8184
469.436	80.6368
472.329	78.9051
475.221	71.2998
478.114	64.8507
481.007	53.6208
483.899	54.2812
486.792	49.023
489.685	50.334
492.577	46.3239
495.47	52.2741
498.363	54.8122
501.256	59.3479
504.148	54.4639
507.041	54.8082
509.934	52.2289
512.826	42.8247
515.719	44.3631
518.612	33.0713
521.505	28.1087
524.397	29.4872
527.29	26.8333
530.183	32.7011
533.075	36.1913
535.968	39.4909
538.861	36.1081
541.753	34.2359
544.646	34.0632
547.539	34.7226
550.432	40.0427
553.324	37.0326
556.217	38.6686
559.11	33.4156
562.002	27.5374
564.895	25.9301
567.788	16.4014
570.68	8.50107
573.573	2.52266
576.466	2.04298
579.359	2.92354
582.251	1.50978
585.144	5.97514
588.037	5.22382
590.929	1.87408
593.822	7.48361
596.715	18.1333
599.607	31.2639
602.5	36.5337
605.393	39.4191
608.285	49.0258
611.178	61.3272
614.071	71.9508
616.964	65.5484
619.856	66.6576
622.749	56.631
625.642	39.5501
628.534	34.9664
631.427	19.8049
634.32	6.96072
637.212	1.78488
640.105	6.97614
642.998	13.4056
645.891	12.2476
648.783	9.76329
651.676	5.27293
654.569	7.4211
657.461	0.302979
660.354	0.762405
663.247	0.56749
666.139	5.56015
669.032	3.07303
671.925	15.5032
674.818	10.3298
677.71	14.2463
680.603	8.44632
683.496	12.3011
686.388	6.43506
689.281	13.6462
692.174	15.3999
695.067	22.9278
697.959	21.7589
700.852	28.3694
703.745	30.1965
706.637	38.8844
709.53	50.1808
712.423	62.5435
715.315	68.6503
718.208	80.7556
721.101	82.4651
723.994	92.8932
726.886	91.1969
729.779	98.245
732.672	112.075
735.564	124.988
738.457	132.166
741.35	137.894
744.242	143.405
747.135	153.52
750.028	167.78
752.92	183.238
755.813	192.567
758.706	206.693
761.599	220.439
764.491	228.979
767.384	232.52
770.277	216.75
773.169	202.621
776.062	181.089
778.955	155.197
781.847	127.552
784.74	109.445
787.633	92.3821
790.526	71.9511
793.418	61.1314
796.311	47.6472
799.204	33.1464
802.096	33.8311
804.989	16.1104
807.882	13.3574
810.774	1.96667
813.667	0.626846
816.56	0.527145
819.453	5.55144
822.345	6.96819
825.238	2.84518
828.131	0.784393
831.023	1.1785
833.916	5.08394
836.809	11.8926
839.702	15.9079
842.594	19.4081
845.487	14.3944
848.38	22.8577
851.272	20.6772
854.165	20.9145
857.058	27.3766
859.95	24.5117
862.843	26.712
865.736	30.5714
868.629	28.2209
871.521	26.1588
874.414	31.1639
877.307	27.2718
880.199	26.7559
883.092	24.9341
885.985	23.2594
888.877	21.0524
891.77	21.1752
894.663	25.5308
897.556	19.6575
900.448	10.8319
903.341	20.5774
906.234	12.0904
909.126	13.1256
912.019	7.92061
914.912	9.58438
917.804	5.25919
920.697	3.10861
923.59	3.30249
926.482	2.16687
929.375	0.133865
932.268	2.26152
935.161	2.20447
938.053	0.524033
940.946	1.48016
943.839	1.99707
946.731	0.884109
949.624	3.86516
952.517	15.0999
955.409	12.3309
958.302	21.7077
961.195	22.9453
964.088	26.3639
966.98	29.4408
969.873	30.1735
972.766	34.9122
975.658	39.6512
978.551	42.702
981.444	43.0086
984.337	44.4868
987.229	48.3636
990.122	46.5836
993.015	43.5929
995.907	37.5189
998.8	32.0095
1001.69	31.3328
1004.59	23.1385
1007.48	21.8938
1010.37	17.5848
1013.26	16.5353
1016.16	8.35887
1019.05	10.6347
1021.94	11.4206
1024.83	9.16592
1027.73	10.3643
1030.62	5.19948
1033.51	13.0605
1036.4	10.3276
1039.3	10.0413
1042.19	10.9162
1045.08	6.71776
1047.98	6.96278
1050.87	8.14536
1053.76	6.09126
1056.65	6.68864
1059.55	4.05458
1062.44	1.6253
1065.33	3.94392
1068.22	5.76924
1071.12	8.06601
1074.01	6.74069
1076.9	13.458
1079.8	17.4658
1082.69	19.242
1085.58	18.3854
1088.47	15.0999
1091.37	17.2937
1094.26	18.084
1097.15	11.6192
1100.04	16.3445
1102.94	23.3919
1105.83	10.3323
1108.72	12.7072
1111.62	6.17383
1114.51	8.00548
1117.4	12.9983
1120.29	7.48981
1123.19	3.77129
1126.08	1.80954
1128.97	2.69871
1131.86	2.8512
1134.76	0.943985
1137.65	0.413284
1140.54	2.50919
1143.43	2.00241
1146.33	0.630814
1149.22	1.45551
1152.11	2.79195
1155.01	0.948654
1157.9	4.63235
1160.79	4.43494
1163.68	6.12221
1166.58	0.781433
1169.47	5.95496
1172.36	3.38129
1175.26	3.64961
1178.15	1.64072
1181.04	3.43184
1183.93	9.08572
1186.83	11.2806
1189.72	10.325
1192.61	6.74793
1195.5	12.5241
1198.4	12.8328
1201.29	10.4416
1204.18	8.44264
1207.07	7.00217
1209.97	10.0338
1212.86	7.62135
1215.75	10.2426
1218.64	9.00201
1221.54	8.41498
1224.43	8.25848
1227.32	8.25792
1230.22	4.90993
1233.11	6.44695
1236	5.98033
1238.89	7.86168
1241.79	8.41394
1244.68	6.13739
1247.57	2.868
1250.46	7.24112
1253.36	10.8533
1256.25	8.55304
1259.14	5.18248
1262.04	7.6055
1264.93	9.96834
1267.82	5.54544
1270.71	6.04613
1273.61	4.28323
1276.5	5.64307
1279.39	4.41469
1282.29	11.5969
1285.18	5.83389
1288.07	2.41364
1290.96	9.74786
1293.86	0.963745
1296.75	10.3201
1299.64	10.2853
1302.53	0.725861
