Measurement: Raman, 785 nm, unoriented, Raman Data Processed
Mineral: Taramite
Rruff sample: R070238
Ideal chemistry: Na(NaCa)(Mg_3_Al_2_)(Si_6_Al_2_)O_22_(OH)_2_
Locality: Ilmen Mts, Chelyabinsk Oblast', Urals Region, Russia
Source: Michael Scott
Description: Lustrous black crystals in matrix
Raman shift (cm-1)	intensity
169.713	0
172.606	32.3031
175.499	14.4075
178.391	1.74658
181.284	62.9935
184.177	58.717
187.069	50.3965
189.962	84.8961
192.855	68.5955
195.748	106.506
198.64	122.038
201.533	142.672
204.426	102.924
207.318	88.9206
210.211	113.735
213.104	100.195
215.996	78.9459
218.889	51.1469
221.782	81.7568
224.674	80.4047
227.567	78.1034
230.46	57.0645
233.353	37.8253
236.245	46.8495
239.138	92.6172
242.031	74.416
244.923	70.7031
247.816	96.0543
250.709	74.9236
253.601	64.3158
256.494	44.4236
259.387	30.134
262.28	45.3167
265.172	26.3646
268.065	62.8438
270.958	31.7263
273.85	86.4618
276.743	84.0209
279.636	129.82
282.529	118.899
285.421	103.6
288.314	158.443
291.207	145.887
294.099	127.938
296.992	123.87
299.885	131.921
302.777	97.316
305.67	104.631
308.563	61.0745
311.455	26.1149
314.348	57.3265
317.241	5.15576
320.134	2.47168
323.026	24.2589
325.919	1.56445
328.812	25.2263
331.704	23.0055
334.597	9.92883
337.49	53.3492
340.382	41.2085
343.275	60.0226
346.168	75.8347
349.061	73.0503
351.953	130.796
354.846	106.62
357.739	112.865
360.631	149.591
363.524	127.609
366.417	116.844
369.31	112.615
372.202	105.842
375.095	149.396
377.988	89.1221
380.88	99.1643
383.773	41.5062
386.666	35.7741
389.558	57.0633
392.451	37.5619
395.344	45.611
398.236	39.6827
401.129	1.95227
404.022	4.45862
406.915	11.3148
409.807	20.5504
412.7	36.1987
415.593	51.3976
418.485	83.0903
421.378	83.1814
424.271	108.125
427.163	98.478
430.056	115.182
432.949	126.797
435.842	110.139
438.734	65.9788
441.627	105.984
444.52	68.6171
447.412	52.2944
450.305	83.8937
453.198	43.9877
456.091	25.8898
458.983	35.8114
461.876	15.9463
464.769	1.53699
467.661	45.4355
470.554	16.0243
473.447	9.3407
476.339	0.389648
479.232	12.1815
482.125	0.158081
485.017	2.17969
487.91	38.4246
490.803	54.9286
493.696	112.184
496.588	93.8644
499.481	177.432
502.374	172.595
505.266	196.963
508.159	270.055
511.052	299.421
513.944	380.892
516.837	403.657
519.73	468.86
522.623	545.491
525.515	595.786
528.408	650.571
531.301	660.205
534.193	662.327
537.086	589.705
539.979	574.45
542.871	488.544
545.764	424.801
548.657	380.881
551.55	353.04
554.442	308.847
557.335	256.246
560.228	240.125
563.12	203.785
566.013	184.476
568.906	136.632
571.798	138.269
574.691	114.064
577.584	147.809
580.477	125.351
583.369	76.6013
586.262	78.0378
589.155	68.0497
592.047	21.7831
594.94	31.3805
597.833	0.713501
600.726	0.953735
603.618	7.94653
606.511	11.2335
609.404	2.77026
612.296	5.74988
615.189	27.3189
618.082	8.54797
620.974	27.7898
623.867	4.57752
626.76	39.1476
629.653	30.0563
632.545	61.2435
635.438	3.28906
638.331	44.2101
641.223	63.2023
644.116	62.1097
647.009	21.2675
649.901	59.0062
652.794	35.131
655.687	14.2336
658.58	25.4877
661.472	48.3005
664.365	47.2554
667.258	71.9946
670.15	75.7954
673.043	67.4077
675.936	49.0336
678.828	73.1706
681.721	77.4153
684.614	39.2136
687.506	16.4695
690.399	24.2743
693.292	36.3898
696.185	25.5818
699.077	42.6902
701.97	2.63989
704.863	26.2001
707.755	17.9242
710.648	12.1082
713.541	30.2873
716.433	41.9857
719.326	49.9941
722.219	37.4994
725.112	64.285
728.004	39.0483
730.897	42.5879
733.79	31.6639
736.682	34.7918
739.575	18.8495
742.468	69.6725
745.361	37.4332
748.253	42.4569
751.146	11.2587
754.039	40.5074
756.931	42.069
759.824	50.8292
762.717	29.854
765.609	68.3916
768.502	33.8196
771.395	11.8057
774.288	22.9447
777.18	38.6052
780.073	56.4214
782.966	26.5857
785.858	40.031
788.751	50.6001
791.644	1.96167
794.536	32.2837
797.429	48.559
800.322	25.8146
803.215	30.9056
806.107	10.2363
809	19.7556
811.893	1.14404
814.785	5.31946
817.678	34.8489
820.571	20.9122
823.463	15.5176
826.356	23.0841
829.249	35.5967
832.141	40.0038
835.034	22.3778
837.927	27.5668
840.82	57.0209
843.712	57.215
846.605	17.5348
849.498	30.0653
852.39	23.3461
855.283	58.9396
858.176	12.7852
861.068	1.40759
863.961	41.9491
866.854	56.5569
869.747	16.0565
872.639	32.1168
875.532	44.0536
878.425	61.0073
881.317	41.0793
884.21	45.422
887.103	21.2384
889.995	52.9402
892.888	7.85132
895.781	2.94641
898.674	7.91125
901.566	24.4873
904.459	9.2229
907.352	1.12463
910.244	4.91418
913.137	13.4002
916.03	18.4439
918.923	15.6639
921.815	6.14148
924.708	10.8837
927.601	17.322
930.493	15.0048
933.386	60.9719
936.279	42.0095
939.171	61.5055
942.064	60.4113
944.957	68.7283
947.85	70.2259
950.742	51.1724
953.635	60.3852
956.528	89.1959
959.42	73.026
962.313	88.1266
965.206	58.4238
968.098	31.3883
970.991	55.0569
973.884	61.6627
976.777	39.4941
979.669	32.1686
982.562	48.985
985.455	49.5004
988.347	61.4296
991.24	36.4943
994.133	62.2883
997.025	56.7521
999.918	56.7678
1002.81	26.178
1005.7	55.9963
1008.6	37.3053
1011.49	36.1294
1014.38	36.7554
1017.27	32.7229
1020.17	27.0603
1023.06	20.6653
1025.95	14.1942
1028.85	50.2299
1031.74	28.6278
1034.63	19.1908
1037.52	33.5315
1040.42	19.5853
1043.31	27.3566
1046.2	8.70801
1049.09	6.57141
1051.99	51.3573
1054.88	41.6078
1057.77	46.4121
1060.66	34.5172
1063.56	44.6604
1066.45	26.1487
1069.34	53.4215
1072.24	37.683
1075.13	23.3471
1078.02	34.3308
1080.91	33.3913
1083.81	24.1583
1086.7	62.3566
1089.59	0.41571
1092.48	34.2905
1095.38	44.694
1098.27	9.72675
1101.16	35.3063
1104.06	31.1498
1106.95	39.1448
1109.84	23.3446
1112.73	1.77679
1115.63	18.3154
1118.52	2.31543
1121.41	8.27612
1124.3	3.72455
1127.2	16.0616
1130.09	7.42481
1132.98	32.1587
1135.88	20.6046
1138.77	42.5194
1141.66	52.147
1144.55	14.9542
1147.45	30.6898
1150.34	24.0094
1153.23	23.1213
1156.12	59.3109
1159.02	26.7283
1161.91	25.179
1164.8	37.4282
1167.69	3.99542
1170.59	50.2221
1173.48	64.0436
1176.37	30.4059
1179.27	48.2551
1182.16	53.7527
1185.05	0.64502
1187.94	37.3865
1190.84	36.6891
1193.73	44.4604
1196.62	38.7994
1199.51	15.4601
1202.41	31.2542
1205.3	23.4682
1208.19	36.4323
1211.09	47.6921
1213.98	43.7732
1216.87	44.4149
1219.76	25.4493
1222.66	19.6978
1225.55	42.7727
1228.44	9.65558
1231.33	8.64722
1234.23	31.7134
1237.12	38.8659
1240.01	17.3187
1242.9	0
