Measurement: Raman, 532 nm, unoriented, Raman Data Processed
Mineral: Taramite
Rruff sample: R061101
Ideal chemistry: Na(NaCa)(Mg_3_Al_2_)(Si_6_Al_2_)O_22_(OH)_2_
Locality: Monte Beigua, 11 km north of Varazze, Savona, Liguria, Italy
Source: Michael Scott
Description: Dark green radiating prismatic crystals
Measured chemistry: (Na_0.68_K_0.20_[box]_12_)_Σ=1_(Ca_1.03_Na_0.97_)_Σ=2_(Fe^2+^_2.21_Mg_0.79_)_Σ=3_(Al_0.87_Fe^3+^_0.13_)_Σ=1_(Fe^3+^_0.62_Mg_0.32_Ti_0.05_Mn_0.01_)_Σ=1_(Si_6.37_Al_1.63_)O_22_(OH)_2_
Raman shift (cm-1)	intensity
142.949	0
146.324	26.8743
149.698	117.129
153.073	128.141
156.448	145.289
159.823	141.53
163.198	151.159
166.573	188.175
169.947	324.738
173.322	282.486
176.697	262.186
180.072	289.808
183.447	300.907
186.821	239.63
190.196	182.555
193.571	243.482
196.946	240.695
200.321	294.453
203.696	334.216
207.07	337.826
210.445	444.965
213.82	427.238
217.195	371.522
220.57	253.594
223.945	210.943
227.319	117.864
230.694	104.514
234.069	81.8916
237.444	30.6924
240.819	23.8049
244.193	21.3594
247.568	57.4692
250.943	8.83081
254.318	14.5525
257.693	31.5515
261.067	34.377
264.442	70.4719
267.817	28.0344
271.192	60.7119
274.567	55.1182
277.942	88.033
281.316	63.1306
284.691	97.0068
288.066	60.6045
291.441	8.2749
294.816	75.3396
298.19	50.6794
301.565	38.7649
304.94	23.1002
308.315	11.4896
311.69	9.83533
315.065	13.4951
318.439	60.7455
321.814	2.88782
325.189	21.026
328.564	15.7307
331.939	42.1086
335.313	85.818
338.688	51.1276
342.063	70.3831
345.438	109.631
348.813	139.034
352.188	174.73
355.562	226.614
358.937	255.108
362.312	284.124
365.687	255.13
369.062	290.854
372.437	294.664
375.811	269.566
379.186	244.563
382.561	222.588
385.936	191.972
389.311	165.687
392.685	209.079
396.06	208.771
399.435	150.714
402.81	84.1249
406.185	75.4781
409.56	79.0187
412.934	136.178
416.309	87.2681
419.684	80.2307
423.059	113.417
426.434	4.51672
429.808	37.9517
433.183	102.083
436.558	91.2057
439.933	32.5529
443.308	2.02637
446.683	9.27258
450.057	2.55701
453.432	21.2529
456.807	4.27441
460.182	22.9274
463.557	19.0166
466.931	40.9346
470.306	84.5721
473.681	31.8373
477.056	77.1748
480.431	26.2015
483.805	27.9329
487.18	95.0281
490.555	153.177
493.93	132.225
497.305	247.838
500.68	308.119
504.054	377.368
507.429	447.333
510.804	429.763
514.179	484.355
517.554	523.697
520.928	562.991
524.303	585.835
527.678	630.587
531.053	656.454
534.428	659.904
537.803	650.684
541.177	669.47
544.552	589.163
547.927	557.286
551.302	553.866
554.677	480.695
558.052	462.528
561.426	349.453
564.801	406.962
568.176	302.916
571.551	339.087
574.926	247.21
578.3	157.535
581.675	155.867
585.05	170.129
588.425	182.926
591.8	105.166
595.174	90.8766
598.549	48.8396
601.924	13.3354
605.299	4.37244
608.674	12.5612
612.049	15.7795
615.423	55.4619
618.798	45.1204
622.173	22.0469
625.548	99.4415
628.923	145.231
632.298	148.974
635.672	197.877
639.047	252.247
642.422	282.131
645.797	329.747
649.172	338.893
652.546	407.458
655.921	469.921
659.296	531.427
662.671	582.33
666.046	504.96
669.42	403.964
672.795	373.624
676.17	344.557
679.545	297.757
682.92	295.539
686.295	271.257
689.669	164.583
693.044	110.739
696.419	51.5083
699.794	16.3989
703.169	18.5087
706.543	37.2771
709.918	23.6628
713.293	76.7944
716.668	144.937
720.043	126.449
723.418	105.656
726.792	173.695
730.167	129.232
733.542	164.448
736.917	128.348
740.292	183.757
743.667	103.695
747.041	75.2059
750.416	47.2794
753.791	64.3732
757.166	119.957
760.541	30.4835
763.915	69.1479
767.29	40.9055
770.665	14.8375
774.04	29.333
777.415	99.145
780.79	126.466
784.164	135.14
787.539	117.492
790.914	80.6184
794.289	90.7595
797.664	89.8748
801.038	113.025
804.413	95.2998
807.788	64.3123
811.163	19.9868
814.538	37.761
817.913	24.2269
821.287	0.591797
824.662	19.8768
828.037	15.8053
831.412	8.03784
834.787	2.35632
838.161	32.8214
841.536	50.0645
844.911	56.5453
848.286	100.289
851.661	126.609
855.035	103.42
858.41	108.749
861.785	143.227
865.16	160.467
868.535	161.335
871.91	153.905
875.284	154.379
878.659	142.083
882.034	98.6405
885.409	125.789
888.784	90.6904
892.159	73.3972
895.533	20.6867
898.908	40.6952
902.283	2.41223
905.658	20.145
909.033	59.1687
912.408	13.4065
915.782	86.0327
919.157	61.345
922.532	8.1123
925.907	88.5664
929.282	61.6218
932.656	84.8477
936.031	73.8257
939.406	124.621
942.781	201.279
946.156	177.091
949.53	224.566
952.905	259.115
956.28	240.637
959.655	179.847
963.03	156.863
966.404	167.554
969.779	122.73
973.154	125.316
976.529	120.397
979.904	169.993
983.279	59.9793
986.653	47.1833
990.028	33.5378
993.403	7.22803
996.778	29.8723
1000.15	84.9006
1003.53	92.5037
1006.9	35.802
1010.28	83.7283
1013.65	18.76
1017.03	113.012
1020.4	119.618
1023.78	126.341
1027.15	99.0979
1030.53	54.6709
1033.9	15.1829
1037.28	74.2519
1040.65	102.51
1044.03	19.1382
1047.4	34.7925
1050.78	43.3274
1054.15	71.4402
1057.53	67.1184
1060.9	83.7581
1064.27	41.5022
1067.65	91.9175
1071.02	139.566
1074.4	50.7146
1077.77	93.5051
1081.15	102.971
1084.52	74.0725
1087.9	105.296
1091.27	52.2572
1094.65	39.7355
1098.02	26.8972
1101.4	9.62256
1104.77	47.7026
1108.15	0.125488
1111.52	21.4155
1114.9	53.6367
1118.27	37.9392
1121.65	27.8919
1125.02	5.17578
1128.4	58.2339
1131.77	78.3848
1135.15	18.9756
1138.52	36.8706
1141.89	48.2955
1145.27	31.3213
1148.64	19.3294
1152.02	69.1268
1155.39	39.9382
1158.77	82.9241
1162.14	15.5308
1165.52	73.5715
1168.89	44.2405
1172.27	35.1409
1175.64	65.2736
1179.02	128.268
1182.39	126.049
1185.77	110.198
1189.14	43.5945
1192.52	94.2095
1195.89	36.5487
1199.27	95.9303
1202.64	108.465
1206.02	98.9712
1209.39	90.3251
1212.77	105.432
1216.14	87.4915
1219.52	83.9437
1222.89	97.5695
1226.27	105.442
1229.64	106.544
1233.02	153.01
1236.39	37.0646
1239.77	60.1265
1243.14	83.7537
1246.52	47.5929
1249.89	66.4163
1253.26	51.6488
1256.64	114.443
1260.01	135.284
1263.39	49.1675
1266.76	104.639
1270.14	60.5641
1273.51	23.0702
1276.89	112.379
1280.26	75.0643
1283.64	1.79529
1287.01	83.7368
1290.39	103.058
1293.76	65.2512
1297.14	82.5142
1300.51	14.0566
1303.89	72.1439
1307.26	21.052
1310.64	21.251
1314.01	103.375
1317.39	1.58704
