Measurement: Raman, 780 nm, unoriented, Raman Data Processed
Mineral: Taramellite
Rruff sample: R110043
Ideal chemistry: Ba_4_(Fe^3+^,Ti^4+^)_4_O_2_[B_2_Si_8_O_27_]Cl_0-1_
Locality: Big Creek, Fresno County, California, USA
Source: William W Pinch
Description: Reddish brown blocky crystals frozen in quartz
Raman shift (cm-1)	intensity
184.17	0
187.063	12.3651
189.955	24.9664
192.848	38.4929
195.741	46.9845
198.633	61.0929
201.526	64.0186
204.419	66.7655
207.311	73.0547
210.204	74.6395
213.097	68.8848
215.99	56.2144
218.882	39.7867
221.775	31.7327
224.668	20.9181
227.56	8.74817
230.453	1.22669
233.346	7.32678
236.238	5.77234
239.131	2.81433
242.024	5.50732
244.917	2.68018
247.809	21.8834
250.702	23.2992
253.595	27.8398
256.487	25.7377
259.38	33.8196
262.273	49.9242
265.166	56.5087
268.058	59.7023
270.951	71.9165
273.844	81.4073
276.736	89.9066
279.629	96.9231
282.522	96.4275
285.414	93.813
288.307	85.4214
291.2	78.5132
294.092	68.5543
296.985	49.4514
299.878	46.1785
302.771	46.1226
305.663	46.0718
308.556	47.6273
311.449	55.3999
314.341	57.1991
317.234	61.4263
320.127	60.5
323.019	67.3014
325.912	62.3768
328.805	67.3527
331.698	66.6769
334.59	71.7018
337.483	80.5542
340.376	84.1012
343.269	93.8372
346.161	104.683
349.054	112.627
351.947	120.932
354.839	126.05
357.732	126.719
360.625	122.348
363.517	118.075
366.41	108.756
369.303	97.6019
372.195	81.7312
375.088	60.7911
377.981	50.6561
380.874	40.022
383.766	28.9443
386.659	21.1085
389.552	12.5789
392.444	7.9425
395.337	1.77441
398.23	6.88208
401.123	6.31421
404.015	6.58044
406.908	8.66382
409.801	5.1272
412.693	2.1178
415.586	11.5974
418.479	15.0165
421.371	30.2944
424.264	27.4308
427.157	33.3763
430.05	29.0187
432.942	40.9619
435.835	36.7797
438.728	28.9474
441.62	29.4347
444.513	27.0293
447.406	37.8763
450.298	36.4375
453.191	45.2272
456.084	52.0007
458.976	66.587
461.869	87.1067
464.762	100.697
467.655	128.386
470.547	138.678
473.44	148.992
476.333	135.823
479.225	126.072
482.118	118.51
485.011	107.582
487.904	103.587
490.796	99.4951
493.689	91.8652
496.582	86.3629
499.474	84.0381
502.367	80.6143
505.26	70.9413
508.152	65.0698
511.045	55.2321
513.938	54.709
516.83	58.1173
519.723	45.8503
522.616	49.7555
525.509	43.1596
528.401	50.3908
531.294	47.0701
534.187	52.2818
537.079	46.2992
539.972	43.564
542.865	39.3676
545.757	38.6775
548.65	41.5614
551.543	41.2137
554.436	45.8779
557.328	46.7805
560.221	35.9169
563.114	27.3588
566.006	20.9958
568.899	9.64624
571.792	4.5946
574.684	0.852844
577.577	5.03155
580.47	3.8772
583.362	3.06055
586.255	3.22302
589.148	4.00958
592.041	2.49445
594.933	5.49841
597.826	13.2502
600.719	23.2075
603.611	27.126
606.504	35.2104
609.397	40.9684
612.29	38.148
615.182	39.0818
618.075	35.8846
620.968	30.9946
623.86	23.7628
626.753	17.5483
629.646	6.26282
632.538	1.41791
635.431	1.85815
638.324	0.547974
641.217	3.2066
644.109	7.00873
647.002	8.64197
649.895	6.95587
652.787	2.40222
655.68	6.70373
658.573	3.13672
661.466	7.58246
664.358	17.9294
667.251	18.898
670.144	26.3641
673.036	23.5879
675.929	18.2652
678.822	15.714
681.714	9.2456
684.607	4.96466
687.5	6.4267
690.393	8.61621
693.285	2.71112
696.178	0.108459
699.071	2.40814
701.963	1.11774
704.856	1.83887
707.749	9.39887
710.641	12.3908
713.534	13.4861
716.427	18.4499
719.319	25.7885
722.212	25.2819
725.105	25.9249
727.998	32.8732
730.89	37.4543
733.783	44.6567
736.676	47.7952
739.568	54.9548
742.461	58.1155
745.354	62.7983
748.246	76.9669
751.139	85.2185
754.032	89.5875
756.925	105.47
759.817	117.898
762.71	126.058
765.603	133.538
768.495	142.149
771.388	131.119
774.281	124.022
777.173	110.286
780.066	93.0896
782.959	82.2062
785.852	64.947
788.744	56.2738
791.637	53.5184
794.53	38.3543
797.422	32.0822
800.315	20.3039
803.208	12.465
806.101	7.13342
808.993	2.28369
811.886	1.87378
814.779	3.242
817.671	0.814209
820.564	1.97632
823.457	0.99408
826.349	4.67822
829.242	1.45392
832.135	3.92627
835.028	10.5454
837.92	11.7596
840.813	13.7778
843.706	17.528
846.598	19.1773
849.491	16.7349
852.384	25.499
855.276	20.9276
858.169	22.0284
861.062	14.9155
863.955	25.6645
866.847	26.3768
869.74	28.2584
872.633	27.6941
875.525	25.1467
878.418	26.2855
881.311	20.9838
884.203	22.6551
887.096	30.9751
889.989	15.7219
892.881	15.6751
895.774	15.9867
898.667	13.1476
901.56	15.7478
904.452	11.7375
907.345	9.22766
910.238	7.39459
913.13	4.10089
916.023	2.97321
918.916	5.12268
921.808	1.27759
924.701	3.72955
927.594	2.0882
930.487	0.661926
933.379	1.53986
936.272	6.46173
939.165	1.64581
942.057	1.08661
944.95	0.63916
947.843	3.51733
950.736	10.712
953.628	15.0914
956.521	14.4909
959.414	23.7014
962.306	28.4181
965.199	32.1968
968.092	41.1533
970.984	40.334
973.877	41.0783
976.77	42.5166
979.663	45.624
982.555	56.4357
985.448	43.0779
988.341	45.217
991.233	40.7406
994.126	39.5447
997.019	34.3552
999.911	34.2474
1002.8	27.7841
1005.7	23.9479
1008.59	23.6923
1011.48	20.4088
1014.38	22.3804
1017.27	21.2446
1020.16	19.127
1023.05	16.0238
1025.95	14.4756
1028.84	14.8906
1031.73	17.0187
1034.62	15.1143
1037.52	15.7248
1040.41	11.3475
1043.3	10.2877
1046.19	7.14923
1049.09	9.76508
1051.98	3.18243
1054.87	9.16437
1057.77	4.06677
1060.66	8.30396
1063.55	3.97455
1066.44	4.22577
1069.34	7.96826
1072.23	15.0029
1075.12	17.9813
1078.01	18.9364
1080.91	23.1744
1083.8	23.1356
1086.69	22.4827
1089.59	23.5685
1092.48	21.1559
1095.37	26.4475
1098.26	19.6863
1101.16	17.4206
1104.05	12.5527
1106.94	9.3327
1109.83	12.7737
1112.73	4.71429
1115.62	5.4635
1118.51	0.511658
1121.4	0.179382
1124.3	0.849915
1127.19	4.40826
1130.08	0.380676
1132.98	0.343933
1135.87	2.98297
1138.76	1.53107
1141.65	0.722717
1144.55	3.82391
1147.44	0.712891
1150.33	2.31793
1153.22	0.8172
1156.12	2.23395
1159.01	1.91638
1161.9	4.13471
1164.8	4.61713
1167.69	9.49731
1170.58	7.28717
1173.47	12.3372
1176.37	6.61877
1179.26	8.80542
1182.15	8.33447
1185.04	10.6952
1187.94	11.6479
1190.83	9.92541
1193.72	10.9175
1196.62	8.69537
1199.51	8.87482
1202.4	10.3396
1205.29	13.3097
1208.19	10.4711
1211.08	8.41834
1213.97	4.745
1216.86	8.01715
1219.76	6.42432
1222.65	7.60858
1225.54	6.6864
1228.43	5.78601
1231.33	2.73846
1234.22	3.71118
1237.11	9.29462
1240.01	4.86365
1242.9	1.19324
1245.79	4.04565
1248.68	1.97806
1251.58	0.881866
1254.47	0.77774
1257.36	5.03143
1260.26	8.79465
1263.15	5.72424
1266.04	16.9408
1268.93	4.86597
1271.83	0.427032
1274.72	2.11975
1277.61	0.509827
1280.5	4.97775
1283.4	3.36618
