Measurement: Raman, 785 nm, unoriented, Raman Data Processed
Mineral: Taramite
Rruff sample: R061101
Ideal chemistry: Na(NaCa)(Mg_3_Al_2_)(Si_6_Al_2_)O_22_(OH)_2_
Locality: Monte Beigua, 11 km north of Varazze, Savona, Liguria, Italy
Source: Michael Scott
Description: Dark green radiating prismatic crystals
Measured chemistry: (Na_0.68_K_0.20_[box]_12_)_Σ=1_(Ca_1.03_Na_0.97_)_Σ=2_(Fe^2+^_2.21_Mg_0.79_)_Σ=3_(Al_0.87_Fe^3+^_0.13_)_Σ=1_(Fe^3+^_0.62_Mg_0.32_Ti_0.05_Mn_0.01_)_Σ=1_(Si_6.37_Al_1.63_)O_22_(OH)_2_
Raman shift (cm-1)	intensity
157.951	0
160.844	33.8068
163.736	61.5792
166.629	123.901
169.522	157.12
172.414	231.327
175.307	239.331
178.2	218.891
181.093	199.338
183.985	222.637
186.878	259.939
189.771	273.298
192.663	281.117
195.556	220.966
198.449	258.838
201.341	230.727
204.234	232.201
207.127	169.273
210.019	189.97
212.912	179.195
215.805	140.818
218.698	183.418
221.59	103.611
224.483	110.332
227.376	117.924
230.268	84.6182
233.161	83.3905
236.054	103.544
238.946	105.161
241.839	54.1425
244.732	69.3414
247.625	31.04
250.517	46.7469
253.41	18.5713
256.303	22.5735
259.195	22.5807
262.088	12.0947
264.981	15.4287
267.873	21.9062
270.766	7.1488
273.659	10.8971
276.552	82.7168
279.444	98.229
282.337	77.6675
285.23	137.807
288.122	142.46
291.015	151.107
293.908	131.803
296.8	137.881
299.693	144.915
302.586	144.693
305.479	119.25
308.371	122.394
311.264	80.3253
314.157	110.365
317.049	69.3656
319.942	21.0028
322.835	32.5225
325.728	23.6467
328.62	0.09021
331.513	6.91186
334.406	7.63306
337.298	13.1698
340.191	1.05615
343.084	7.22253
345.976	18.0719
348.869	36.3341
351.762	11.5814
354.654	68.4031
357.547	43.9796
360.44	98.8103
363.333	124.974
366.225	109.107
369.118	101.347
372.011	154.829
374.903	148.352
377.796	173.395
380.689	133.241
383.582	142.808
386.474	124.517
389.367	138.62
392.26	117.661
395.152	127.212
398.045	79.8662
400.938	77.3995
403.83	71.7396
406.723	28.2782
409.616	13.2098
412.509	5.51196
415.401	7.04602
418.294	34.6592
421.187	7.9364
424.079	23.0727
426.972	49.4062
429.865	43.0975
432.757	47.4618
435.65	29.9439
438.543	66.5798
441.435	36.655
444.328	55.658
447.221	57.4448
450.114	74.454
453.006	34.0579
455.899	26.1759
458.792	16.6755
461.684	50.1237
464.577	7.89758
467.47	31.7511
470.363	28.7728
473.255	1.57153
476.148	50.9592
479.041	3.23364
481.933	9.60877
484.826	18.1716
487.719	16.1649
490.611	14.6184
493.504	50.1119
496.397	83.9434
499.289	131.561
502.182	181.638
505.075	243.231
507.968	305.326
510.86	368.495
513.753	401.508
516.646	543.038
519.538	619.808
522.431	675.08
525.324	733.221
528.217	813.987
531.109	872.291
534.002	834.011
536.895	837.954
539.787	837.803
542.68	754.147
545.573	717.801
548.466	652.371
551.358	573.913
554.251	556.691
557.144	488.528
560.036	429.404
562.929	383.349
565.822	354.85
568.714	296.515
571.607	248.205
574.5	190.393
577.392	158.88
580.285	135.42
583.178	114.409
586.071	89.9066
588.963	63.358
591.856	57.9929
594.749	32.8118
597.641	12.7728
600.534	3.31702
603.427	7.87927
606.319	14.4246
609.212	7.10864
612.105	0.847046
614.997	10.8344
617.89	1.83508
620.783	32.5315
623.676	6.27722
626.568	1.46289
629.461	27.6228
632.354	27.4005
635.246	41.9277
638.139	55.4769
641.032	62.9048
643.924	70.0055
646.817	76.4492
649.71	110.143
652.603	85.4679
655.495	111.775
658.388	141.146
661.281	172.497
664.173	178.252
667.066	167.781
669.959	179.331
672.851	153.919
675.744	147.845
678.637	137.964
681.53	147.796
684.422	142.928
687.315	147.232
690.208	124.187
693.1	106.099
695.993	96.3314
698.886	55.3009
701.779	22.2216
704.671	12.4353
707.564	37.083
710.457	43.6572
713.349	44.8619
716.242	24.0637
719.135	58.2512
722.027	42.3868
724.92	51.9477
727.813	27.5961
730.706	37.8789
733.598	20.3178
736.491	37.8784
739.384	44.8644
742.276	66.4496
745.169	33.3792
748.062	8.78906
750.954	28.7235
753.847	6.30933
756.74	9.18835
759.633	25.395
762.525	7.02344
765.418	1.32373
768.311	10.1622
771.203	6.62695
774.096	33.3816
776.989	26.826
779.881	26.0469
782.774	52.9994
785.667	51.3917
788.559	58.6235
791.452	46.8828
794.345	55.9976
797.238	41.9436
800.13	48.3999
803.023	34.8852
805.916	28.4539
808.808	22.1867
811.701	2.46216
814.594	51.571
817.486	26.1903
820.379	6.7843
823.272	41.8256
826.165	27.9655
829.057	1.73083
831.95	16.7158
834.843	6.5813
837.735	20.5499
840.628	32.6066
843.521	33.4299
846.413	32.5826
849.306	46.873
852.199	45.4395
855.092	63.922
857.984	40.0598
860.877	32.1731
863.77	17.1528
866.662	48.4893
869.555	52.956
872.448	51.0864
875.341	14.4838
878.233	0.230835
881.126	8.81494
884.019	10.4611
886.911	23.1017
889.804	36.9841
892.697	28.391
895.589	13.4065
898.482	6.47168
901.375	4.74866
904.268	2.11633
907.16	1.56409
910.053	15.0747
912.946	7.16711
915.838	19.1926
918.731	38.8025
921.624	32.1571
924.516	23.057
927.409	16.996
930.302	3.22766
933.194	23.507
936.087	39.8857
938.98	19.5095
941.873	88.9115
944.765	66.7393
947.658	78.3646
950.551	47.9156
953.443	51.5785
956.336	100.14
959.229	80.6467
962.121	87.0765
965.014	40.207
967.907	70.0416
970.8	36.6002
973.692	69.6223
976.585	65.8883
979.478	75.2083
982.37	47.9783
985.263	96.3425
988.156	57.5461
991.048	38.7224
993.941	65.1179
996.834	57.3611
999.727	43.7396
1002.62	92.6373
1005.51	91.215
1008.4	57.1996
1011.3	23.6423
1014.19	12.2483
1017.08	51.5418
1019.98	40.2333
1022.87	46.0234
1025.76	26.2065
1028.65	33.0784
1031.55	29.7248
1034.44	39.9882
1037.33	37.4037
1040.22	63.6036
1043.12	15.2456
1046.01	32.4204
1048.9	51.3859
1051.8	66.2872
1054.69	55.7606
1057.58	68.4281
1060.47	35.5013
1063.37	61.2168
1066.26	90.0165
1069.15	84.1769
1072.04	61.4368
1074.94	108.414
1077.83	101.246
1080.72	47.5154
1083.62	95.9574
1086.51	43.007
1089.4	27.178
1092.29	69.1893
1095.19	13.27
1098.08	4.9624
1100.97	10.842
1103.86	55.3918
1106.76	40.2505
1109.65	1.68835
1112.54	41.175
1115.43	16.559
1118.33	29.3115
1121.22	14.2678
1124.11	9.72595
1127.01	10.8729
1129.9	3.64002
1132.79	3.00513
1135.68	14.8011
1138.58	24.0649
1141.47	48.5005
1144.36	34.5185
1147.25	81.5966
1150.15	49.8289
1153.04	51.5099
1155.93	49.5092
1158.83	61.5928
1161.72	46.5122
1164.61	46.0997
1167.5	24.6997
1170.4	23.7123
1173.29	66.7959
1176.18	32.6469
1179.07	60.3023
1181.97	52.4853
1184.86	44.0406
1187.75	34.5432
1190.64	19.7092
1193.54	45.4285
1196.43	21.8545
1199.32	59.7411
1202.22	26.2084
1205.11	66.3256
1208	48.0907
1210.89	48.9882
1213.79	48.0212
1216.68	52.8578
1219.57	33.0491
1222.46	26.0651
1225.36	21.3641
1228.25	43.8546
1231.14	53.8414
1234.04	68.6132
1236.93	1.32031
1239.82	43.2511
1242.71	35.707
