Measurement: Raman, 532 nm, unoriented, Raman Data Processed
Mineral: Teallite
Rruff sample: R050434
Ideal chemistry: PbSnS_2_
Locality: Carhuaycollo, Carguaicollo District, Potosi, Bolivia
Source: University of Arizona Mineral Museum
Description: Grayish black massive aggregate of thin folia with warped and bent crystals
Measured chemistry: (Pb_0.71_Sn_1.29_)_Î£=2_S_2.00_
Raman shift (cm-1)	intensity
117.524	0
120.417	5.59774
123.31	30.406
126.202	20.4551
129.095	32.3506
131.988	37.3577
134.88	44.0527
137.773	51.1486
140.666	50.748
143.559	38.5583
146.451	37.6501
149.344	30.2604
152.237	31.5879
155.129	30.1024
158.022	23.2595
160.915	18.1346
163.807	16.3548
166.7	11.3126
169.593	12.606
172.486	7.52808
175.378	4.45654
178.271	5.17642
181.164	2.80696
184.056	3.81273
186.949	5.45747
189.842	5.28162
192.734	4.99497
195.627	6.48565
198.52	6.65368
201.412	4.90058
204.305	8.58175
207.198	7.9375
210.091	7.38882
212.983	7.38635
215.876	6.00812
218.769	5.89508
221.661	4.15735
224.554	3.47144
227.447	2.71355
230.339	3.23803
233.232	0.537468
236.125	1.15158
239.018	1.13717
241.91	1.08411
244.803	0.443138
247.696	0.250504
250.588	1.42715
253.481	0.37439
256.374	0.065552
259.267	1.20336
262.159	1.5089
265.052	0.831497
267.945	0.862595
270.837	0.008575
273.73	0.762718
276.623	0.290215
279.515	0.837414
282.408	0.121902
285.301	0.434841
288.193	2.30675
291.086	3.50582
293.979	4.71481
296.872	3.95498
299.764	7.37254
302.657	7.04355
305.55	7.48841
308.442	7.4634
311.335	6.24464
314.228	6.28762
317.12	6.33275
320.013	5.55467
322.906	4.74857
325.799	6.10933
328.691	5.22283
331.584	4.45581
334.477	4.63178
337.369	3.11682
340.262	3.15949
343.155	3.52272
346.048	3.21853
348.94	3.43468
351.833	2.25646
354.726	2.11313
357.618	2.29118
360.511	4.05307
363.404	3.61586
366.296	2.01758
369.189	1.16526
372.082	4.15903
374.974	2.22609
377.867	1.9249
380.76	2.70644
383.653	1.76865
386.545	3.24193
389.438	1.8937
392.331	1.81733
395.223	1.62169
398.116	2.20108
401.009	2.20097
403.902	0.739006
406.794	1.63701
409.687	3.3043
412.58	1.99687
415.472	1.93891
418.365	1.37073
421.258	1.73498
424.151	1.40024
427.043	1.52632
429.936	0.505257
432.829	1.19343
435.721	1.19098
438.614	0.749725
441.507	0.978661
444.399	1.48087
447.292	1.40622
450.185	0.24836
453.077	0.773703
455.97	0.148008
458.863	0.883848
461.756	0.859388
464.648	1.56469
467.541	0.410275
470.434	0.80835
473.326	0.410128
476.219	0.310207
479.112	0.932688
482.005	0.90064
484.897	0.958677
487.79	1.4493
490.683	2.2032
493.575	0.567104
496.468	0.735689
499.361	0.871706
502.253	0.433802
505.146	0.613665
508.039	0.263054
510.932	0.313236
513.824	0.166908
516.717	1.15115
519.61	0.313454
522.502	0.605295
525.395	0.423492
528.288	0.835892
531.18	1.69714
534.073	1.47396
536.966	1.22418
539.859	1.04968
542.751	1.25845
545.644	0.888582
548.537	1.57428
551.429	0.654766
554.322	2.23537
557.215	1.71984
560.107	1.34117
563	1.85539
565.893	1.42499
568.785	1.50912
571.678	1.01657
574.571	1.30125
577.464	0.46232
580.356	1.1314
583.249	0.331966
586.142	2.17607
589.034	2.20218
591.927	0.634334
594.82	1.26738
597.712	1.49531
600.605	0.46457
603.498	1.59232
606.391	1.80452
609.283	1.11414
612.176	1.30076
615.069	1.33924
617.961	0.05418
620.854	1.69806
623.747	0.981461
626.639	0.539245
629.532	1.54336
632.425	1.89544
635.318	2.67657
638.21	1.70417
641.103	2.0939
643.996	2.73334
646.888	1.98425
649.781	2.2873
652.674	1.86221
655.567	3.13915
658.459	1.55113
661.352	0.344582
664.245	2.34137
667.137	1.07043
670.03	1.14909
672.923	1.89365
675.815	1.57136
678.708	0.883754
681.601	1.56153
684.494	2.35584
687.386	0.86245
690.279	2.5107
693.172	1.40461
696.064	0.79248
698.957	1.23914
701.85	0.762161
704.742	0.170069
707.635	1.64724
710.528	1.35103
713.42	0.587977
716.313	1.312
719.206	1.32352
722.099	1.38169
724.991	0.526304
727.884	1.32585
730.777	0.889805
733.669	1.23507
736.562	0.547688
739.455	0.622473
742.347	0.937257
745.24	0.396742
748.133	1.10346
751.026	0.046351
753.918	0.234871
756.811	0.884015
759.704	0.473259
762.596	1.46321
765.489	1.12949
768.382	0.672619
771.274	1.76083
774.167	1.11692
777.06	0.439899
779.953	0.384983
782.845	0.140793
785.738	1.44905
788.631	1.51557
791.523	0.653679
794.416	2.07995
797.309	1.13666
800.202	1.4072
803.094	0.716943
805.987	0.479342
808.88	2.1439
811.772	0.837661
814.665	1.80867
817.558	1.60025
820.45	1.51786
823.343	0.707165
826.236	1.77777
829.129	1.49357
832.021	2.22092
834.914	1.56126
837.807	2.97128
840.699	1.64099
843.592	2.14188
846.485	2.7114
849.377	3.19774
852.27	2.79994
855.163	2.68252
858.056	3.72782
860.948	2.22685
863.841	2.32836
866.734	3.34692
869.626	3.1586
872.519	2.34606
875.412	2.40185
878.304	3.24644
881.197	2.07504
884.09	1.89153
886.982	2.15114
889.875	1.65783
892.768	1.7566
895.661	1.1253
898.553	1.51133
901.446	1.5602
904.339	1.16207
907.231	0.993947
910.124	1.51766
913.017	1.82263
915.909	0.465097
918.802	0.676483
921.695	0.885046
924.588	0.552457
927.48	0.464909
930.373	1.25896
933.266	1.64102
936.158	1.42726
939.051	0.73924
941.944	1.02994
944.837	0.835684
947.729	1.64078
950.622	0.89859
953.515	1.46502
956.407	0.787728
959.3	0.829093
962.193	0.307116
965.085	1.73247
967.978	0.518914
970.871	1.03802
973.764	2.38677
976.656	0.319488
979.549	0.80332
982.442	2.06221
985.334	0.77499
988.227	1.47369
991.12	0.199931
994.012	0.487379
996.905	1.35405
999.798	1.82139
1002.69	1.60135
1005.58	0.422453
1008.48	2.07352
1011.37	1.2075
1014.26	1.87413
1017.15	1.29321
1020.05	0.621909
1022.94	0.282812
1025.83	0.819097
1028.72	1.15059
1031.62	0.196463
1034.51	1.71281
1037.4	1.43281
1040.3	1.04197
1043.19	1.65454
1046.08	2.2839
1048.97	1.10258
1051.87	0.801335
1054.76	2.79281
1057.65	1.00217
1060.54	1.6121
1063.44	1.38044
1066.33	0.879447
1069.22	1.35757
1072.12	0.788876
1075.01	1.11125
1077.9	0.832176
1080.79	1.15693
1083.69	1.91152
1086.58	0.597038
1089.47	1.09749
1092.36	1.84053
1095.26	1.75062
1098.15	0.232907
1101.04	1.46394
1103.93	0.884058
1106.83	0.657629
1109.72	0.65137
1112.61	1.58042
1115.51	1.18774
1118.4	0.036063
1121.29	1.2367
1124.18	0.637948
1127.08	0.895575
1129.97	0.930555
1132.86	0.246717
1135.76	1.35713
1138.65	0.137432
1141.54	1.41196
1144.43	0.267463
1147.33	1.234
1150.22	2.46649
1153.11	0.989873
1156	0.68554
1158.9	0.175681
1161.79	1.89558
1164.68	1.33706
1167.57	0.186128
1170.47	0.80996
1173.36	0.595804
1176.25	1.49479
1179.14	1.92281
1182.04	1.8431
1184.93	1.08703
1187.82	0.240337
1190.72	2.13624
1193.61	0.060258
1196.5	0.66438
1199.39	0.428224
1202.29	2.95593
1205.18	1.11272
1208.07	0.542739
1210.96	2.50447
1213.86	1.45793
1216.75	0.083106
1219.64	0.29342
1222.54	1.15123
1225.43	0.119955
1228.32	2.64188
1231.21	1.19328
1234.11	1.67943
1237	1.2575
1239.89	0.332256
1242.79	0.745123
1245.68	1.78544
1248.57	0.786612
1251.46	0.925976
1254.36	1.31971
1257.25	1.11673
1260.14	1.41359
1263.03	0.67351
1265.93	1.16981
