Measurement: Raman, 780 nm, unoriented, Raman Data Processed
Mineral: Tellurium
Rruff sample: R060136
Ideal chemistry: Te
Locality: Good Hope mine, Vulcan District, Gunnison County, Colorado, USA
Source: University of Arizona Mineral Museum
Description: Steel gray metallic fragment
Measured chemistry: (Te_0.99_Sb_0.01_)_Î£=1_
Raman shift (cm-1)	intensity
120.47	0
123.845	1.04402
127.22	0.654317
130.595	0.959432
133.97	11.2561
137.344	19.8128
140.719	12.877
144.094	0.540456
147.469	0.266935
150.844	0.121978
154.218	0.313554
157.593	1.7877
160.968	2.18736
164.343	2.20553
167.718	1.94471
171.093	1.90835
174.467	1.82558
177.842	1.54886
181.217	4.50551
184.592	5.06414
187.966	5.29473
191.341	5.79026
194.716	6.28789
198.091	6.93279
201.466	7.42491
204.841	6.54158
208.215	6.03909
211.59	6.23654
214.965	5.31466
218.34	5.30385
221.715	5.11569
225.089	5.07396
228.464	4.44463
231.839	4.28031
235.214	4.58693
238.589	4.64036
241.964	4.54794
245.338	4.45322
248.713	4.15601
252.088	4.12604
255.463	4.09457
258.838	3.1385
262.212	2.99532
265.587	2.98816
268.962	2.62928
272.337	2.32845
275.712	1.83108
279.087	1.20583
282.461	0.578121
285.836	0.334197
289.211	0.156421
292.586	0.071268
295.961	0.061682
299.335	0.531518
302.71	0.430746
306.085	0.637583
309.46	0.373866
312.835	0.100867
316.209	0.073928
319.584	0.449988
322.959	0.511779
326.334	0.479994
329.709	0.263363
333.084	0.086548
336.458	0.246993
339.833	0.272579
343.208	0.77602
346.583	0.891085
349.958	0.402327
353.332	0.902826
356.707	1.38322
360.082	0.361507
363.457	0.57759
366.832	0.600024
370.207	0.008579
373.581	0.813982
376.956	0.493939
380.331	0.037833
383.706	0.201532
387.081	0.620847
390.455	0.178846
393.83	0.737988
397.205	0.148658
400.58	0.484844
403.955	0.189572
407.329	0.362993
410.704	0.028626
414.079	0.58683
417.454	0.50226
420.829	0.351133
424.204	0.114426
427.578	0.431404
430.953	0.818263
434.328	0.344664
437.703	0.349281
441.078	0.589303
444.452	0.133675
447.827	0.297653
451.202	0.020416
454.577	1.34141
457.952	0.078427
461.327	0.478024
464.701	0.819055
468.076	0.726835
471.451	0.918391
474.826	0.12589
478.201	0.031719
481.575	0.99247
484.95	1.19714
488.325	0.745753
491.7	0.445947
495.075	0.755978
498.45	0.969588
501.824	0.54277
505.199	0.440595
508.574	0.706998
511.949	0.414062
515.323	0.248213
518.698	0.160396
522.073	0.276316
525.448	0.442223
528.823	0.514762
532.198	0.634539
535.572	0.878636
538.947	1.97398
542.322	1.27528
545.697	1.45013
549.072	0.781625
552.447	1.26319
555.821	1.28807
559.196	1.22354
562.571	0.766923
565.946	0.08596
569.321	1.02036
572.695	0.523762
576.07	0.558345
579.445	0.067834
582.82	0.403598
586.195	0.100062
589.569	0.907774
592.944	0.690614
596.319	0.343616
599.694	0.352314
603.069	0.006265
606.443	0.819034
609.818	0.689682
613.193	0.22531
616.568	0.521003
619.943	0.842151
623.318	0.3198
626.692	0.861171
630.067	0.261949
633.442	0.234543
636.817	1.13271
640.192	0.955332
643.567	0.836383
646.941	0.835166
650.316	0.514929
653.691	0.586098
657.066	0.583083
660.441	0.568789
663.815	0.500563
667.19	0.128769
670.565	0.573992
673.94	0.376563
677.315	0.546577
680.689	0.616462
684.064	0.153453
687.439	0.169816
690.814	0.018624
694.189	0.012804
697.563	0.425285
700.938	0.477548
704.313	0.166927
707.688	0.171325
711.063	0.437762
714.438	0.681577
717.812	0.554265
721.187	0.901836
724.562	0.458224
727.937	0.002852
731.312	0.051985
734.687	0.361746
738.061	0.765201
741.436	0.17302
744.811	0.209403
748.186	0.814057
751.561	0.273001
754.935	0.181955
758.31	0.329609
761.685	0.748138
765.06	0.153043
768.435	0.806516
771.809	0.374899
775.184	0.033156
778.559	0.412022
781.934	0.702472
785.309	0.479918
788.683	0.079549
792.058	1.32452
795.433	0.329315
798.808	0.282628
802.183	1.13641
805.558	0.361917
808.932	0.611541
812.307	1.11987
815.682	0.591108
819.057	0.044196
822.432	0.529005
825.807	0.161242
829.181	0.784677
832.556	0.971227
835.931	0.483591
839.306	0.816303
842.681	1.13208
846.055	1.15583
849.43	0.579017
852.805	1.3164
856.18	0.660161
859.555	0.783298
862.929	1.30469
866.304	0.855468
869.679	0.786058
873.054	1.46881
876.429	0.822171
879.803	0.409696
883.178	1.43083
886.553	0.324724
889.928	0.11831
893.303	0.338421
896.678	0.881608
900.052	0.945213
903.427	0.302786
906.802	0.223712
910.177	0.625387
913.552	0.242965
916.927	0.450684
920.301	0.084548
923.676	0.157538
927.051	0.185743
930.426	0.043397
933.801	0.196711
937.175	0.318639
940.55	0.515673
943.925	0.934382
947.3	0.17907
950.675	0.193688
954.049	0.740403
957.424	0.445346
960.799	0.778977
964.174	0.20473
967.549	0.011958
970.923	0.323739
974.298	0.099499
977.673	0.154487
981.048	1.24313
984.423	0.067292
987.798	0.145893
991.172	0.908325
994.547	0.812267
997.922	0.275565
1001.3	0.562479
1004.67	1.16236
1008.05	0.600629
1011.42	0.552581
1014.8	0.103372
1018.17	0.678159
1021.55	0.835698
1024.92	0.587177
1028.3	0.253811
1031.67	0.415319
1035.05	0.112624
1038.42	0.2442
1041.8	0.216273
1045.17	0.353934
1048.54	0.732079
1051.92	0.122471
1055.29	0.21541
1058.67	1.08762
1062.04	0.055243
1065.42	1.17431
1068.79	0.607146
1072.17	0.364738
1075.54	1.02972
1078.92	0.051013
1082.29	0.031807
1085.67	0.524854
1089.04	0.130432
1092.42	0.861844
1095.79	0.03361
1099.17	0.131091
1102.54	0.483758
1105.92	1.01373
1109.29	1.38906
1112.67	0.395087
1116.04	0.4501
1119.41	0.838376
1122.79	0.089425
1126.16	0.101499
1129.54	0.13052
1132.91	0.073991
1136.29	0.140951
1139.66	0.367705
1143.04	0.565693
1146.41	0.47215
1149.79	0.88241
1153.16	0.780379
1156.54	0.308245
1159.91	1.2025
1163.29	0.569831
1166.66	0.704609
1170.04	0.258785
1173.41	0.967667
1176.79	0.306568
1180.16	0.846387
1183.54	0.458704
1186.91	0.342021
1190.29	0.140311
1193.66	0.201346
1197.04	0.495227
1200.41	0.364122
1203.79	0.757963
1207.16	1.34623
1210.54	0.132362
1213.91	0.505176
1217.29	0.902108
1220.66	0.646466
1224.04	0.225707
1227.41	0.742897
1230.78	1.20422
1234.16	0.638524
1237.53	0.593885
1240.91	0.572705
1244.28	0.582717
1247.66	0.494463
1251.03	0.616376
1254.41	0.748179
1257.78	0.109849
1261.16	0.775269
1264.53	0.061709
1267.91	1.23114
1271.28	0.081338
1274.66	0.563228
1278.03	0.018659
1281.41	0.317189
1284.78	0.45137
