Measurement: Raman, 785 nm, unoriented, Raman Data Processed
Mineral: Tellurium
Rruff sample: R070376
Ideal chemistry: Te
Locality: North of Bennett Lake, Rainy River District, Ontario, Canada
Source: Royal Ontario Museum
Description: Steel gray metallic fragment
Measured chemistry: Te
Raman shift (cm-1)	intensity
163.446	0
166.338	72.8788
169.231	56.0325
172.124	138.095
175.017	227.82
177.909	157.105
180.802	30.7246
183.695	12.7056
186.587	33.6782
189.48	42.6857
192.373	47.3957
195.265	52.522
198.158	9.89746
201.051	31.3732
203.944	39.3331
206.836	40.0572
209.729	5.3634
212.622	8.77356
215.514	22.484
218.407	25.6527
221.3	25.548
224.192	22.0131
227.085	15.1465
229.978	13.3633
232.87	5.07269
235.763	4.44104
238.656	29.7523
241.549	47.9786
244.441	53.4518
247.334	76.4785
250.227	112.001
253.119	213.093
256.012	269.022
258.905	313.133
261.798	327.73
264.69	344.724
267.583	296.975
270.476	274.551
273.368	248.776
276.261	195.916
279.154	160.653
282.046	126.464
284.939	89.9879
287.832	58.0498
290.724	42.8554
293.617	17.5084
296.51	25.2516
299.403	12.654
302.295	18.3189
305.188	34.0513
308.081	54.8812
310.973	51.5156
313.866	38.4314
316.759	45.8481
319.651	16.4922
322.544	27.5831
325.437	2.53532
328.33	5.46671
331.222	7.83855
334.115	1.93315
337.008	19.0215
339.9	21.9487
342.793	20.7018
345.686	24.7353
348.579	33.6683
351.471	20.2852
354.364	23.751
357.257	13.9326
360.149	7.51756
363.042	14.5317
365.935	12.8588
368.827	2.49915
371.72	0.077194
374.613	7.33881
377.505	23.2669
380.398	10.3118
383.291	20.7176
386.184	24.0883
389.076	20.4191
391.969	20.6313
394.862	7.59914
397.754	25.6738
400.647	9.43277
403.54	11.5028
406.433	11.1955
409.325	21.7991
412.218	5.91887
415.111	15.5213
418.003	15.5706
420.896	14.1783
423.789	12.6619
426.681	5.23416
429.574	0.251923
432.467	4.82712
435.36	4.02733
438.252	10.5816
441.145	7.05107
444.038	1.46104
446.93	16.6464
449.823	11.8201
452.716	12.9164
455.608	9.75928
458.501	5.56548
461.394	11.3576
464.286	6.63701
467.179	10.7971
470.072	17.4105
472.965	7.84897
475.857	7.64017
478.75	15.2576
481.643	9.31206
484.535	14.9848
487.428	17.6175
490.321	17.7116
493.214	22.4609
496.106	12.3072
498.999	4.78528
501.892	11.5736
504.784	4.57411
507.677	15.1986
510.57	4.5692
513.462	10.7785
516.355	14.3447
519.248	16.693
522.14	9.79309
525.033	8.09618
527.926	21.2712
530.819	15.798
533.711	13.9655
536.604	26.0233
539.497	23.2802
542.389	6.57831
545.282	1.71858
548.175	9.03461
551.067	0.489029
553.96	2.03467
556.853	1.97
559.745	3.37465
562.638	13.1652
565.531	6.82393
568.424	13.3955
571.316	22.9593
574.209	19.6656
577.102	6.67317
579.994	18.375
582.887	0.712692
585.78	11.0629
588.673	14.2167
591.565	7.71687
594.458	0.335526
597.351	6.18828
600.243	8.634
603.136	12.8978
606.029	16.1443
608.921	13.5286
611.814	0.378754
614.707	7.97249
617.6	14.578
620.492	0.153336
623.385	0.047531
626.278	8.22261
629.17	5.9483
632.063	6.5493
634.956	3.78388
637.848	5.93462
640.741	3.17223
643.634	11.7098
646.527	16.4995
649.419	22.2102
652.312	13.46
655.205	11.6461
658.097	5.04289
660.99	15.1308
663.883	28.7103
666.775	17.5906
669.668	6.96269
672.561	5.50829
675.454	11.8703
678.346	6.43111
681.239	11.8804
684.132	1.06642
687.024	6.4393
689.917	0.636963
692.81	1.33952
695.702	18.0967
698.595	3.26958
701.488	7.6555
704.381	18.0685
707.273	9.33667
710.166	12.7264
713.059	7.30435
715.951	8.08977
718.844	9.71387
721.737	3.35262
724.63	6.75258
727.522	1.97238
730.415	4.56606
733.308	25.6265
736.2	17.5742
739.093	11.9895
741.986	12.5728
744.878	14.0197
747.771	4.62842
750.664	9.90944
753.557	7.95233
756.449	0.455872
759.342	23.3757
762.235	11.2298
765.127	17.5041
768.02	4.93762
770.913	4.99235
773.805	10.9913
776.698	12.0901
779.591	14.2921
782.484	11.4047
785.376	22.7085
788.269	16.6106
791.162	15.5592
794.054	4.50536
796.947	6.01773
799.84	2.71716
802.732	11.0261
805.625	9.30055
808.518	5.2162
811.41	5.22989
814.303	11.0382
817.196	16.6878
820.089	18.4899
822.981	12.223
825.874	9.5789
828.767	2.76726
831.659	9.22295
834.552	4.26888
837.445	11.2137
840.337	4.38673
843.23	5.16048
846.123	7.5721
849.016	18.6348
851.908	7.69733
854.801	10.9339
857.694	9.75987
860.586	21.0176
863.479	19.5836
866.372	9.12254
869.264	11.1479
872.157	20.8175
875.05	9.4164
877.943	0.079483
880.835	8.3053
883.728	15.9787
886.621	8.58716
889.513	6.4738
892.406	14.2432
895.299	13.4177
898.192	6.94517
901.084	29.3144
903.977	8.96903
906.87	14.1166
909.762	11.3643
912.655	9.15486
915.548	27.0093
918.44	10.9832
921.333	4.14087
924.226	5.26317
927.119	11.9895
930.011	3.2722
932.904	18.1498
935.797	24.6703
938.689	19.6745
941.582	25.5864
944.475	7.28598
947.367	31.1176
950.26	16.0092
953.153	0.530624
956.045	13.3903
958.938	10.8361
961.831	10.455
964.724	8.50781
967.616	13.8064
970.509	21.9054
973.402	7.17751
976.294	14.2873
979.187	15.562
982.08	21.751
984.972	14.8132
987.865	5.80504
990.758	6.44028
993.651	15.4242
996.543	2.90242
999.436	1.38635
1002.33	10.2483
1005.22	11.8322
1008.11	8.00255
1011.01	5.53703
1013.9	14.4777
1016.79	6.89635
1019.68	10.4151
1022.58	13.0143
1025.47	4.99844
1028.36	2.90092
1031.26	1.36351
1034.15	9.41592
1037.04	1.32841
1039.93	22.3676
1042.83	2.71121
1045.72	7.43315
1048.61	16.9443
1051.51	15.9667
1054.4	14.5807
1057.29	6.912
1060.18	6.52299
1063.08	0.25737
1065.97	7.61409
1068.86	9.39893
1071.75	8.00987
1074.65	14.3369
1077.54	10.3155
1080.43	11.711
1083.32	12.642
1086.22	17.8839
1089.11	8.36661
1092	12.9452
1094.89	3.04768
1097.79	22.4342
1100.68	13.3153
1103.57	17.3668
1106.47	4.9363
1109.36	1.62325
1112.25	5.90717
1115.14	11.7059
1118.04	12.122
1120.93	17.5242
1123.82	8.4708
1126.71	13.8121
1129.61	20.9669
1132.5	16.3518
1135.39	16.5333
1138.29	3.3522
1141.18	8.24426
1144.07	5.42305
1146.96	18.896
1149.86	7.6799
1152.75	4.46445
1155.64	29.827
1158.53	8.66116
1161.43	12.8248
1164.32	19.9902
1167.21	22.7163
1170.11	27.346
1173	17.4311
1175.89	9.28485
1178.78	6.1844
1181.68	6.69774
1184.57	12.1032
1187.46	9.60886
1190.35	15.9136
1193.25	22.6896
1196.14	16.2085
1199.03	9.13767
1201.92	29.904
1204.82	17.3797
1207.71	12.5997
1210.6	0.322647
1213.5	10.0955
1216.39	7.51706
1219.28	23.2706
1222.17	15.0598
1225.07	5.43987
1227.96	14.4431
1230.85	3.78409
1233.74	2.12723
1236.64	2.41316
