Measurement: Raman, 532 nm, unoriented, Raman Data Processed
Mineral: Tellurium
Rruff sample: R070376
Ideal chemistry: Te
Locality: North of Bennett Lake, Rainy River District, Ontario, Canada
Source: Royal Ontario Museum
Description: Steel gray metallic fragment
Measured chemistry: Te
Raman shift (cm-1)	intensity
144.358	0
147.251	47.6103
150.144	2.77783
153.037	20.9603
155.929	59.3352
158.822	55.5945
161.715	58.5853
164.607	72.7203
167.5	96.7661
170.393	151.768
173.286	170.744
176.178	195.165
179.071	172.466
181.964	132.964
184.856	98.0063
187.749	83.9544
190.642	34.2118
193.535	12.1992
196.427	2.34045
199.32	11.126
202.213	6.29947
205.105	24.1872
207.998	52.4348
210.891	56.2595
213.783	68.4632
216.676	93.5467
219.569	99.2155
222.462	116.671
225.354	95.9131
228.247	72.3466
231.14	55.4305
234.032	49.7382
236.925	45.7091
239.818	43.401
242.71	61.2914
245.603	98.6799
248.496	123.263
251.388	184.232
254.281	257.599
257.174	311.142
260.067	368.54
262.959	375.335
265.852	372.882
268.745	331.157
271.637	271.036
274.53	232.948
277.423	175.497
280.315	164.08
283.208	103.42
286.101	79.042
288.994	55.0487
291.886	48.5112
294.779	36.9518
297.672	22.1412
300.564	23.5548
303.457	17.0053
306.35	11.8582
309.243	13.6807
312.135	17.349
315.028	21.5762
317.921	5.33601
320.813	10.5328
323.706	6.92036
326.599	3.28404
329.491	3.23157
332.384	5.67787
335.277	5.19191
338.17	2.02864
341.062	2.61861
343.955	5.16098
346.848	13.1987
349.74	10.171
352.633	11.0859
355.526	9.60654
358.418	9.02058
361.311	0.31131
364.204	8.73589
367.097	14.769
369.989	3.13936
372.882	8.15341
375.775	1.92419
378.667	1.9229
381.56	10.5172
384.453	11.843
387.346	13.7768
390.238	9.15173
393.131	15.002
396.024	24.7508
398.916	23.0538
401.809	27.12
404.702	22.8558
407.594	26.2586
410.487	11.0481
413.38	18.6348
416.272	7.67779
419.165	13.7796
422.058	16.5501
424.951	10.9724
427.843	10.5157
430.736	1.28484
433.629	6.82135
436.521	9.68173
439.414	9.811
442.307	5.67839
445.2	4.16596
448.092	13.8966
450.985	3.51009
453.878	2.35877
456.77	4.1091
459.663	4.48425
462.556	0.323349
465.448	5.78603
468.341	2.82315
471.234	11.9507
474.127	8.09383
477.019	5.19333
479.912	10.6786
482.805	7.67239
485.697	5.75034
488.59	9.5769
491.483	11.8019
494.375	8.85811
497.268	9.2522
500.161	4.47664
503.053	15.9973
505.946	10.5743
508.839	14.2342
511.732	8.17165
514.624	9.79932
517.517	2.80865
520.41	7.14807
523.302	4.17657
526.195	1.45851
529.088	11.264
531.981	1.41466
534.873	4.28379
537.766	8.6237
540.659	0.243912
543.551	4.26808
546.444	10.6807
549.337	1.6199
552.229	8.95258
555.122	9.13026
558.015	16.5682
560.908	10.6184
563.8	4.48024
566.693	11.5275
569.586	13.4851
572.478	15.7899
575.371	14.2959
578.264	3.07652
581.156	18.615
584.049	12.9614
586.942	8.51968
589.835	17.5675
592.727	16.6914
595.62	10.4737
598.513	4.10749
601.405	15.183
604.298	3.77126
607.191	13.6024
610.083	1.55846
612.976	1.05518
615.869	5.79595
618.762	4.77823
621.654	8.93809
624.547	11.5826
627.44	11.0681
630.332	3.75293
633.225	27.22
636.118	19.3529
639.01	24.0907
641.903	29.2653
644.796	35.3444
647.689	22.8455
650.581	36.5846
653.474	40.201
656.367	38.4727
659.259	41.0943
662.152	43.9066
665.045	27.7356
667.938	22.7811
670.83	17.6826
673.723	14.8488
676.616	12.9727
679.508	16.2995
682.401	11.9409
685.294	8.9713
688.186	11.4926
691.079	8.82886
693.972	0.8228
696.865	11.3505
699.757	4.92348
702.65	13.1418
705.543	1.86575
708.435	3.59676
711.328	8.05568
714.221	1.13694
717.113	15.0308
720.006	14.3538
722.899	11.8231
725.792	14.2644
728.684	14.2319
731.577	12.8975
734.47	12.3993
737.362	12.7672
740.255	6.459
743.148	6.47429
746.04	10.5596
748.933	0.679649
751.826	3.94313
754.719	2.37647
757.611	12.5304
760.504	7.03666
763.397	0.215088
766.289	10.514
769.182	2.75771
772.075	9.99368
774.967	13.1438
777.86	8.78497
780.753	14.3117
783.646	4.65327
786.538	15.8128
789.431	3.29102
792.324	6.6612
795.216	12.475
798.109	4.45827
801.002	5.70859
803.894	3.32906
806.787	2.79404
809.68	13.7135
812.573	11.4588
815.465	6.59175
818.358	3.25993
821.251	8.22945
824.143	12.066
827.036	8.86081
829.929	1.84923
832.822	2.13439
835.714	4.39149
838.607	11.0875
841.5	5.24367
844.392	13.0455
847.285	12.8505
850.178	3.1884
853.07	6.65048
855.963	8.55839
858.856	6.31748
861.749	12.6575
864.641	12.9733
867.534	11.2582
870.427	8.09865
873.319	7.00313
876.212	8.32185
879.105	10.2359
881.997	10.7271
884.89	10.2012
887.783	13.358
890.676	11.6835
893.568	8.09066
896.461	5.52996
899.354	3.24385
902.246	11.5223
905.139	11.6536
908.032	10.6126
910.924	4.37322
913.817	12.5754
916.71	5.13847
919.602	15.5608
922.495	2.53091
925.388	10.7885
928.281	18.0104
931.173	16.6907
934.066	11.9367
936.959	10.4216
939.851	1.21217
942.744	8.65539
945.637	4.91429
948.529	10.2925
951.422	10.7528
954.315	10.2556
957.208	4.94878
960.1	4.7699
962.993	8.44832
965.886	7.80348
968.778	6.2138
971.671	11.1967
974.564	0.610901
977.457	15.9328
980.349	15.9627
983.242	2.39245
986.135	3.49703
989.027	5.92947
991.92	3.10526
994.813	12.3549
997.705	11.6583
1000.6	2.91488
1003.49	9.17704
1006.38	12.5777
1009.28	6.54881
1012.17	5.68461
1015.06	9.66574
1017.95	7.76987
1020.85	12.1187
1023.74	3.39632
1026.63	20.9703
1029.53	2.87849
1032.42	17.5018
1035.31	5.26916
1038.2	4.38251
1041.1	13.0194
1043.99	17.5049
1046.88	8.49616
1049.77	0.913399
1052.67	13.1933
1055.56	12.8844
1058.45	0.409767
1061.35	6.18117
1064.24	2.24022
1067.13	8.23937
1070.02	1.7553
1072.92	13.6437
1075.81	0.534935
1078.7	9.32348
1081.59	13.2436
1084.49	12.6377
1087.38	13.4613
1090.27	5.83688
1093.16	14.7286
1096.06	5.34704
1098.95	13.832
1101.84	6.91716
1104.73	3.72599
1107.63	2.6421
1110.52	6.57405
1113.41	0.689392
1116.31	9.60305
1119.2	7.6691
1122.09	7.84592
1124.98	3.78451
1127.88	3.97721
1130.77	6.83893
1133.66	4.00898
1136.56	10.8726
1139.45	17.2967
1142.34	4.36832
1145.23	16.3082
1148.13	3.45854
1151.02	10.0636
1153.91	9.90079
1156.8	11.8447
1159.7	2.58318
1162.59	6.99519
1165.48	10.8929
1168.38	9.70635
1171.27	6.31661
1174.16	4.17112
1177.05	0.66938
1179.95	7.8661
1182.84	9.90007
1185.73	10.2736
1188.62	13.317
1191.52	5.21831
1194.41	21.7283
1197.3	6.86724
1200.19	5.98721
1203.09	8.86997
1205.98	10.7663
1208.87	14.4752
1211.77	6.59545
1214.66	18.0606
1217.55	12.8002
1220.44	15.0124
1223.34	9.82801
1226.23	3.19785
1229.12	21.4454
1232.01	9.27277
1234.91	14.3323
1237.8	12.3688
1240.69	18.9762
1243.59	12.9963
1246.48	15.0211
1249.37	7.39639
1252.26	16.71
1255.16	12.1128
1258.05	10.1179
1260.94	9.93893
1263.83	10.2746
1266.73	7.9454
1269.62	1.66699
1272.51	21.5656
1275.4	5.0566
1278.3	0.128197
1281.19	11.8036
1284.08	20.4585
1286.98	1.21558
1289.87	8.84161
1292.76	10.4262
1295.65	8.95586
1298.55	0.855263
