Measurement: Raman, 532 nm, unoriented, Raman Data Processed
Mineral: Tengerite-(Y)
Rruff sample: R060480
Ideal chemistry: Y_2_(CO_3_)_3_2-3H_2_O
Locality: Ytterby, Sweden
Source: Michael Scott
Description: White thin radial coating
Raman shift (cm-1)	intensity
217.463	0
220.356	68.969
223.248	116.73
226.141	78.893
229.034	136.891
231.926	88.215
234.819	119.34
237.712	162.209
240.605	157.072
243.497	42.357
246.39	339.637
249.283	280.576
252.176	272.883
255.068	190.424
257.961	183.859
260.854	320.752
263.746	316.957
266.639	277.129
269.532	280.064
272.424	124.41
275.317	108.24
278.21	192.334
281.103	152.508
283.995	259.838
286.888	119.373
289.781	132.045
292.673	99.492
295.566	1.973
298.459	72.279
301.351	30.588
304.244	150.146
307.137	378.178
310.03	278.215
312.922	354.227
315.815	69.168
318.708	67.281
321.6	15.742
324.493	91.846
327.386	143.035
330.278	225.201
333.171	118.82
336.064	188.527
338.957	299.283
341.849	272.021
344.742	97.076
347.635	139.363
350.527	273.936
353.42	313.625
356.313	425.332
359.205	270.219
362.098	242.465
364.991	207.752
367.884	250.586
370.776	154.754
373.669	208.068
376.562	232.459
379.454	173.154
382.347	108.777
385.24	118.385
388.132	121.957
391.025	182.736
393.918	121.594
396.81	50.246
399.703	33.766
402.596	188.098
405.489	22.285
408.381	28.611
411.274	78.096
414.167	52.686
417.06	1.301
419.952	74.162
422.845	95.375
425.738	91.66
428.63	83.75
431.523	32.242
434.416	104.266
437.308	42.066
440.201	212.549
443.094	57.859
445.987	142.602
448.879	121.293
451.772	135.842
454.665	157.154
457.557	159.838
460.45	157.525
463.343	126.969
466.235	138.488
469.128	144.734
472.021	231.902
474.914	255.062
477.806	229.912
480.699	198.316
483.592	339.033
486.484	217.488
489.377	305.312
492.27	245.369
495.162	205.178
498.055	290.59
500.948	287.283
503.841	289.002
506.733	468.914
509.626	560.232
512.519	604.086
515.411	637.059
518.304	777.473
521.197	706.734
524.089	786.443
526.982	664.135
529.875	601.518
532.768	490.336
535.66	293.939
538.553	293.188
541.446	248.865
544.338	284.127
547.231	328.062
550.124	315.643
553.016	329.281
555.909	345.967
558.802	365.561
561.695	411.383
564.587	387.549
567.48	493.594
570.373	401.129
573.265	439.166
576.158	269.76
579.051	273.24
581.943	193.717
584.836	207.729
587.729	232.318
590.622	143.07
593.514	47.16
596.407	108.752
599.3	4.41
602.192	30.445
605.085	29.264
607.978	12.703
610.87	81.088
613.763	64.324
616.656	119.494
619.549	100.318
622.441	102.783
625.334	81.16
628.227	17.023
631.119	32.635
634.012	22.297
636.905	52.352
639.797	82.471
642.69	236.635
645.583	566.02
648.476	658.777
651.368	1006.13
654.261	1195.19
657.154	1194.1
660.046	1323.66
662.939	1559.19
665.832	1779.39
668.724	2090.06
671.617	2461.18
674.51	2671.38
677.403	2852.96
680.295	3000.32
683.188	3250.05
686.081	3707.45
688.973	3849.63
691.866	3927.99
694.759	3972.02
697.652	4006.19
700.544	4021.46
703.437	4047.76
706.33	4046.7
709.222	4054.63
712.115	4112.5
715.008	4135.38
717.901	4123.28
720.793	4132.34
723.686	4140.73
726.579	4160.74
729.471	4190.98
732.364	3940.49
735.257	3900.49
738.149	3775.25
741.042	3774.2
743.935	3616.65
746.828	3572.54
749.72	3533.15
752.613	3064.62
755.506	2678.28
758.398	2606.51
761.291	2433.95
764.184	2064.25
767.076	1941.01
769.969	1942.15
772.862	1744.73
775.755	1531.46
778.647	1313.86
781.54	1164.8
784.433	987.693
787.325	786.416
790.218	728.967
793.111	481.246
796.003	350.438
798.896	345.002
801.789	223.564
804.682	179.498
807.574	48.826
810.467	72.75
813.36	35.014
816.252	80.098
819.145	67.135
822.038	155.975
824.93	95.85
827.823	95.512
830.716	29.092
833.609	88.617
836.501	87.004
839.394	95.232
842.287	216.658
845.179	260.988
848.072	303.33
850.965	421.842
853.857	430.082
856.75	383.084
859.643	389.793
862.536	672.729
865.428	723.676
868.321	667.73
871.214	792.84
874.106	894.598
876.999	887.631
879.892	640.719
882.784	633.75
885.677	559.756
888.57	681.277
891.463	667.789
894.355	467.943
897.248	442.875
900.141	449.959
903.033	387.695
905.926	213.846
908.819	299.1
911.711	279.545
914.604	208.764
917.497	219.324
920.39	223.9
923.282	304.895
926.175	386.574
929.068	447.27
931.96	360.801
934.853	314.439
937.746	335.355
940.638	326.363
943.531	302.012
946.424	390.117
949.317	339.023
952.209	436.383
955.102	422.562
957.995	429.973
960.888	553.646
963.78	605.42
966.673	691.961
969.566	462.402
972.458	388.148
975.351	448.416
978.244	307.234
981.136	243.191
984.029	150.826
986.922	194.613
989.815	157.293
992.707	59.352
995.6	63.855
998.493	132.832
1001.38	49.615
1004.28	41.396
1007.17	118.396
1010.06	44.49
1012.96	23.34
1015.85	9.322
1018.74	19.986
1021.63	30.32
1024.53	95.428
1027.42	59.648
1030.31	27.008
1033.2	168.654
1036.1	118.816
1038.99	84.34
1041.88	46.498
1044.78	24.834
1047.67	73.396
1050.56	2.877
1053.45	43.502
1056.35	57.812
1059.24	28.514
1062.13	122.82
1065.03	17.006
1067.92	59.709
1070.81	54.66
1073.7	123.428
1076.6	104.518
1079.49	7.41
1082.38	21.932
1085.27	58.574
1088.17	174.354
1091.06	140.961
1093.95	156.342
1096.84	119.949
1099.74	236.764
1102.63	269.236
1105.52	233.131
1108.41	268.732
1111.31	149.189
1114.2	74.102
1117.09	138.949
1119.99	120.375
1122.88	88.783
1125.77	150.135
1128.66	245.117
1131.56	233.773
1134.45	250.494
1137.34	221.688
1140.23	184.064
1143.13	43.803
1146.02	77.961
1148.91	10.844
1151.81	144.197
1154.7	94.301
1157.59	81.355
1160.48	152.75
1163.38	116.209
1166.27	58.932
1169.16	3.201
1172.06	19.768
1174.95	144.02
1177.84	196.734
1180.73	187.629
1183.62	89.869
1186.52	190.58
1189.41	87.455
1192.3	125.105
1195.2	75.941
1198.09	21.607
1200.98	130.766
1203.87	44.639
1206.77	93.01
1209.66	22.168
1212.55	59.242
1215.44	47.473
1218.34	76.99
1221.23	23.895
1224.12	72.164
1227.02	56.975
1229.91	40.758
1232.8	32.639
1235.69	182.027
1238.59	185.16
1241.48	169.627
1244.37	173.756
1247.27	53.893
1250.16	152.674
1253.05	62.799
1255.94	14.801
1258.84	158.488
1261.73	6.201
1264.62	4.854
1267.51	16.074
1270.41	118.74
1273.3	133.014
1276.19	47.58
1279.09	23.219
