Measurement: Raman, 532 nm, unoriented, Raman Data Processed
Mineral: Tengerite-(Y)
Rruff sample: R060480
Ideal chemistry: Y_2_(CO_3_)_3_2-3H_2_O
Locality: Ytterby, Sweden
Source: Michael Scott
Description: White thin radial coating
Raman shift (cm-1)	intensity
196.25	0
199.143	50.195
202.035	296.207
204.928	408.973
207.821	917.031
210.713	782.289
213.606	566.266
216.499	468.16
219.391	484.324
222.284	238.293
225.177	57.102
228.07	0.547
230.962	51.547
233.855	21.953
236.748	1.289
239.64	156.363
242.533	393.859
245.426	783.242
248.318	1333.25
251.211	1298.57
254.104	1025.88
256.997	854.715
259.889	957.062
262.782	962.039
265.675	1290.37
268.567	1162.61
271.46	969.848
274.353	680.008
277.246	678.645
280.138	796.801
283.031	1057.84
285.924	1245.77
288.816	1023.28
291.709	1074.68
294.602	632.137
297.494	339.191
300.387	53.332
303.28	574.59
306.173	784.312
309.065	711.785
311.958	429.809
314.851	368.922
317.743	249.641
320.636	96.59
323.529	150.688
326.422	474.055
329.314	574.031
332.207	419.246
335.1	383.93
337.992	380.992
340.885	426.258
343.778	127.633
346.67	199.285
349.563	131.066
352.456	325.312
355.349	300.051
358.241	126.176
361.134	6.094
364.027	121.23
366.919	147.062
369.812	43.605
372.705	188.004
375.597	182.438
378.49	253.02
381.383	182.27
384.276	50.18
387.168	288.551
390.061	554.301
392.954	545.898
395.846	387.367
398.739	354.312
401.632	495.266
404.524	496.184
407.417	667.691
410.31	755.188
413.203	940.852
416.095	1197.88
418.988	765.395
421.881	491.777
424.773	354.73
427.666	134.066
430.559	31.668
433.451	8
436.344	6.793
439.237	146.309
442.129	168.188
445.022	241.961
447.915	312.961
450.808	104.047
453.7	488.898
456.593	505.398
459.486	394.109
462.379	388.008
465.271	842.781
468.164	1615.85
471.057	2245.22
473.949	2985.08
476.842	3657.2
479.735	3625.92
482.627	2997.58
485.52	2537.2
488.413	2122.8
491.306	1341.81
494.198	1463.61
497.091	1941.84
499.984	2805.51
502.876	3851.35
505.769	5055.54
508.662	5234.46
511.554	3904.31
514.447	2241.65
517.34	1310.2
520.232	1187.19
523.125	989.539
526.018	862.039
528.911	563.648
531.803	567.094
534.696	88.656
537.589	75.758
540.481	12.711
543.374	37.945
546.267	282.672
549.159	333.383
552.052	74.641
554.945	237.68
557.838	22.609
560.73	136.477
563.623	162.82
566.516	358.797
569.408	676.211
572.301	631.086
575.194	471.727
578.086	321.734
580.979	70.625
583.872	315.867
586.765	115.703
589.657	283.961
592.55	271.398
595.443	175.695
598.335	113.336
601.228	148.359
604.121	361.133
607.013	587.641
609.906	740.117
612.799	863.289
615.692	603.828
618.584	491.789
621.477	536.242
624.37	954.938
627.263	852.562
630.155	781.852
633.048	263.945
635.941	254.391
638.833	94.516
641.726	65.797
644.619	132.578
647.511	134.695
650.404	513.773
653.297	853.711
656.19	743.547
659.082	594.656
661.975	522.984
664.868	412.656
667.76	491.453
670.653	738.93
673.546	681.852
676.438	172.656
679.331	449.5
682.224	381.594
685.117	781.891
688.009	957.477
690.902	682.117
693.795	1022.25
696.687	925.719
699.58	656.625
702.473	485.906
705.365	192.344
708.258	75.953
711.151	33.031
714.044	114.016
716.936	63.664
719.829	101.867
722.722	138.367
725.614	71.125
728.507	128.938
731.4	69.016
734.292	60.734
737.185	481.719
740.078	347.414
742.971	542.852
745.863	1087.49
748.756	1514.68
751.649	1352.99
754.541	1691
757.434	2098.39
760.327	1846.88
763.219	1342.76
766.112	1145.52
769.005	848.016
771.898	653.867
774.79	367.633
777.683	177.953
780.576	12.273
783.468	112.68
786.361	63.805
789.254	89.828
792.146	159.953
795.039	482.672
797.932	486.242
800.825	527.734
803.717	611.008
806.61	559.094
809.503	535.641
812.395	798.438
815.288	851.883
818.181	505.023
821.073	325.984
823.966	106.055
826.859	504.68
829.752	856.352
832.644	536.531
835.537	381.367
838.43	304.227
841.322	503.672
844.215	637.531
847.108	672.703
850	610.438
852.893	38.914
855.786	2.328
858.679	38.109
861.571	661.969
864.464	750.125
867.357	482.961
870.25	128.297
873.142	130.648
876.035	439.297
878.928	266.992
881.82	511.531
884.713	467.023
887.606	634.891
890.498	744.062
893.391	1116.62
896.284	1651.73
899.177	1457.28
902.069	728.438
904.962	414.82
907.855	79.922
910.747	555.797
913.64	325.867
916.533	309.859
919.425	226.023
922.318	478.703
925.211	734.117
928.104	1318.4
930.996	1086.11
933.889	724.695
936.782	319.109
939.674	599.68
942.567	402.711
945.46	121.727
948.352	72.898
951.245	136.789
954.138	325.492
957.031	18.164
959.923	40.859
962.816	39.219
965.709	90.203
968.601	21.68
971.494	416.773
974.387	184.047
977.279	548
980.172	715.406
983.065	843.102
985.958	442.367
988.85	190.344
991.743	666.289
994.636	686.523
997.528	730.562
1000.42	885.383
1003.31	1354.26
1006.21	1260.71
1009.1	1059.54
1011.99	1133.71
1014.88	975.961
1017.78	875.602
1020.67	768.875
1023.56	1144.09
1026.45	1354.26
1029.35	1118.31
1032.24	1213.52
1035.13	811.266
1038.03	1275.77
1040.92	1412.44
1043.81	1598.7
1046.7	1588.81
1049.6	1991.37
1052.49	3062.66
1055.38	4860.38
1058.28	7216.99
1061.17	9139.84
1064.06	9942.97
1066.95	7923.1
1069.85	5598.15
1072.74	3667.15
1075.63	3264.86
1078.52	2829.25
1081.42	3652.05
1084.31	5299.39
1087.2	6884.9
1090.1	8317.79
1092.99	10471.4
1095.88	12519.3
1098.77	12764.7
1101.67	9251.21
1104.56	5371.31
1107.45	3035.45
1110.34	1524.65
1113.24	512.383
1116.13	270.516
1119.02	21.391
1121.91	4.844
1124.81	120.148
1127.7	38.352
1130.59	358.578
1133.48	688.086
1136.38	338.688
1139.27	120.336
1142.16	114.242
1145.06	196.539
1147.95	236.883
1150.84	78.641
1153.73	371.117
1156.63	671.258
1159.52	593.602
1162.41	457.617
1165.31	144.266
1168.2	57.68
1171.09	84.883
1173.98	603.633
1176.88	1386.5
1179.77	1046.47
1182.66	1061.73
1185.55	1291.53
1188.45	1021.74
1191.34	542.875
1194.23	453.672
1197.12	568.633
1200.02	544.43
1202.91	469.172
1205.8	447.938
1208.7	766.234
1211.59	982.016
1214.48	949.453
1217.37	1071.91
1220.27	565.312
1223.16	550.469
1226.05	737.391
1228.94	635.328
1231.84	678.531
1234.73	874.016
1237.62	954.938
1240.52	1024.56
1243.41	1114.08
1246.3	1166.5
1249.19	1380.47
1252.09	717.656
1254.98	492.516
1257.87	768.219
1260.76	1046.41
1263.66	126.969
1266.55	187.281
1269.44	153.344
1272.34	1041.39
1275.23	1666.3
1278.12	1267.47
1281.01	681.203
1283.91	409.797
1286.8	339.109
1289.69	435.547
1292.58	7.078
