Measurement: Raman, 532 nm, unoriented, Raman Data Processed
Mineral: Tennantite-(Zn)
Rruff sample: R050438
Ideal chemistry: Cu^1+^_6_(Cu^1+^_4_Zn^2+^_2_)As^3+^_4_S^2-^_13_
Locality: Conception del Oro, Zecatecas, Mexico
Source: University of Arizona Mineral Museum
Description: Grey-black crystals associated with white quartz. The crystals appear to vary in chemistry between tennantite and tetrahedrite.
Measured chemistry: (Cu_9.94_Zn_1.51_Fe_0.55_)_Σ=12_(As_3.58_Sb_0.42_)_Σ=4_S_13.00_; = dark phase. (Cu_10.03_Zn_1.70_Fe_0.27_)_Σ=12_(As_2.01_Sb_1.99_)_Σ=4_S_13.00_; light phase: (Cu_10.03_Zn_1.84_Fe_0.13_)_Σ=12_(Sb_3.18_As_0.82_)_Σ=4_S_13.00_ ; = gray phase
Raman shift (cm-1)	intensity
97.3625	0
100.737	0.024031
104.112	0.124121
107.487	0.792876
110.862	0.300098
114.237	0.523835
117.611	0.384142
120.986	0.342142
124.361	0.387351
127.736	0.445836
131.111	0.819856
134.486	0.891315
137.86	1.07883
141.235	1.3232
144.61	1.15471
147.985	0.508327
151.359	0.17162
154.734	0.469736
158.109	0.494246
161.484	0.35216
164.859	0.351933
168.234	0.268473
171.608	0.316787
174.983	0.177837
178.358	0.565541
181.733	0.46169
185.108	0.470473
188.482	0.488708
191.857	0.197954
195.232	0.225951
198.607	0.424736
201.982	0.378304
205.357	0.269417
208.731	0.12547
212.106	0.097722
215.481	0.02861
218.856	0.437813
222.231	0.010281
225.606	0.296674
228.98	0.293578
232.355	0.144372
235.73	0.257385
239.105	0.024844
242.48	0.270177
245.854	0.404821
249.229	0.345942
252.604	0.169952
255.979	0.170871
259.354	0.384162
262.728	0.319542
266.103	0.140086
269.478	0.018194
272.853	0.278981
276.228	0.277089
279.603	0.15337
282.977	0.271938
286.352	0.320195
289.727	0.061414
293.102	0.223549
296.477	0.367882
299.851	0.252354
303.226	0.425886
306.601	0.860147
309.976	0.615166
313.351	0.676685
316.726	0.88816
320.1	1.05742
323.475	0.768119
326.85	0.917792
330.225	0.892775
333.6	0.936599
336.974	1.06057
340.349	1.02038
343.724	1.28268
347.099	1.20466
350.474	1.19929
353.849	1.05982
357.223	0.790415
360.598	0.829204
363.973	1.08075
367.348	1.27027
370.723	1.62874
374.097	1.88764
377.472	1.63659
380.847	2.03473
384.222	2.35492
387.597	2.9345
390.971	1.89742
394.346	0.897985
397.721	0.158761
401.096	0.204963
404.471	0.351962
407.846	0.221623
411.22	0.028368
414.595	0.214631
417.97	0.029014
421.345	0.070209
424.72	0.075499
428.094	0.082412
431.469	0.13024
434.844	0.093034
438.219	0.024812
441.594	0.263211
444.969	0.112967
448.343	0.111777
451.718	0.226518
455.093	0.12696
458.468	0.027751
461.843	0.204472
465.217	0.266924
468.592	0.208231
471.967	0.178986
475.342	0.315466
478.717	0.073371
482.091	0.507635
485.466	0.296225
488.841	0.146567
492.216	0.383747
495.591	0.248211
498.966	0.080173
502.34	0.126509
505.715	0.078681
509.09	0.078563
512.465	0.072994
515.84	0.160892
519.215	0.277178
522.589	0.297363
525.964	0.319334
529.339	0.371131
532.714	0.32044
536.089	0.342613
539.463	0.094657
542.838	0.020875
546.213	0.302462
549.588	0.23665
552.963	0.130702
556.337	0.13557
559.712	0.192427
563.087	0.009451
566.462	0.224244
569.837	0.215293
573.212	0.231095
576.586	0.350373
579.961	0.335419
583.336	0.28137
586.711	0.253946
590.086	0.293989
593.46	0.1032
596.835	0.2454
600.21	0.032853
603.585	0.231082
606.96	0.099272
610.335	0.188985
613.709	0.333002
617.084	0.219738
620.459	0.269307
623.834	0.370601
627.209	0.036178
630.583	0.096742
633.958	0.237306
637.333	0.30144
640.708	0.119399
644.083	0.086124
647.457	0.005213
650.832	0.149447
654.207	0.047262
657.582	0.092363
660.957	0.287904
664.332	0.097319
667.706	0.201236
671.081	0.339579
674.456	0.256257
677.831	0.222422
681.206	0.23028
684.58	0.241411
687.955	0.149849
691.33	0.045717
694.705	0.188172
698.08	0.049509
701.455	0.337724
704.829	0.126541
708.204	0.010342
711.579	0.168072
714.954	0.337371
718.329	0.1286
721.703	0.081669
725.078	0.21174
728.453	0.071535
731.828	0.035444
735.203	0.24652
738.577	0.241664
741.952	0.097229
745.327	0.144398
748.702	0.226987
752.077	0.008114
755.452	0.203647
758.826	0.282559
762.201	0.252501
765.576	0.224354
768.951	0.067756
772.326	0.212861
775.701	0.047956
779.075	0.280891
782.45	0.080403
785.825	0.098524
789.2	0.258547
792.574	0.042824
795.949	0.183153
799.324	0.014761
802.699	0.260408
806.074	0.0669
809.449	0.093773
812.823	0.272676
816.198	0.010802
819.573	0.30763
822.948	0.054322
826.323	0.083691
829.697	0.165886
833.072	0.250296
836.447	0.172843
839.822	0.115242
843.197	0.007852
846.572	0.25459
849.946	0.032989
853.321	0.173711
856.696	0.026255
860.071	0.048902
863.446	0.150567
866.821	0.117628
870.195	0.058676
873.57	0.080493
876.945	0.0717
880.32	0.009907
883.695	0.100266
887.069	0.406867
890.444	0.195761
893.819	0.06513
897.194	0.250539
900.569	0.152441
903.943	0.18052
907.318	0.034676
910.693	0.150274
914.068	0.018023
917.443	0.139865
920.818	0.098043
924.192	0.108263
927.567	0.109327
930.942	0.06334
934.317	0.276951
937.692	0.126145
941.067	0.130783
944.441	0.067829
947.816	0.019833
951.191	0.179304
954.566	0.190838
957.941	0.441718
961.315	0.12943
964.69	0.239402
968.065	0.235876
971.44	0.371881
974.815	0.25368
978.189	0.107935
981.564	0.189227
984.939	0.183432
988.314	0.242607
991.689	0.092861
995.063	0.38233
998.438	0.293185
1001.81	0.060573
1005.19	0.085063
1008.56	0.27754
1011.94	0.277926
1015.31	0.143386
1018.69	0.201778
1022.06	0.06656
1025.44	0.234873
1028.81	0.035898
1032.19	0.137026
1035.56	0.115671
1038.94	0.009909
1042.31	0.202359
1045.69	0.233914
1049.06	0.181093
1052.43	0.16019
1055.81	0.296182
1059.18	0.3078
1062.56	0.276769
1065.93	0.131719
1069.31	0.314846
1072.68	0.257824
1076.06	0.121444
1079.43	0.245572
1082.81	0.216433
1086.18	0.365438
1089.56	0.339949
1092.93	0.282984
1096.31	0.181789
1099.68	0.128746
1103.06	0.07559
1106.43	0.160414
1109.81	0.363741
1113.18	0.306074
1116.56	0.081697
1119.93	0.237899
1123.31	0.051824
1126.68	0.334462
1130.06	0.377645
1133.43	0.129896
1136.81	0.083351
1140.18	0.258394
1143.56	0.241769
1146.93	0.224348
1150.31	0.195943
1153.68	0.000654
1157.06	0.206576
1160.43	0.042304
1163.8	0.166011
1167.18	0.151362
1170.55	0.216986
1173.93	0.184485
1177.3	0.022906
1180.68	0.285559
1184.05	0.189356
1187.43	0.195684
1190.8	0.207812
1194.18	0.089028
1197.55	0.079371
1200.93	0.186897
1204.3	0.126191
1207.68	0.244386
1211.05	0.131483
1214.43	0.153644
1217.8	0.147005
1221.18	0.101466
1224.55	0.106107
1227.93	0.323855
1231.3	0.18244
1234.67	0.168903
1238.05	0.246268
1241.42	0.235653
1244.8	0.20557
1248.17	0.242685
1251.55	0.318049
1254.92	0.194391
1258.3	0.151863
1261.67	0.106453
1265.05	0.135648
1268.42	0.273648
1271.8	0.263955
1275.17	0.348641
1278.55	0.348187
1281.92	0.250151
1285.3	0.114806
1288.67	0.11876
1292.05	0.197111
1295.42	0.235339
1298.8	0.063526
