Measurement: Raman, 532 nm, unoriented, Raman Data Processed
Mineral: Tennantite-(Fe)
Rruff sample: R110024
Ideal chemistry: Cu^1+^_6_(Cu^1+^_4_Fe^2+^_2_)As^3+^_4_S^2-^_13_
Locality: Quiruvilca, La Libertad Department, Peru
Source: William Pinch
Description: Black metallic tetrahedral crystals associated with pinkish grey famatinite, R110022, on pyrite
Raman shift (cm-1)	intensity
203.308	0
206.2	1.96958
209.093	4.63791
211.986	1.8938
214.878	0.829229
217.771	5.41807
220.664	5.70434
223.556	9.71536
226.449	5.29829
229.342	11.205
232.234	4.43581
235.127	4.56328
238.02	4.94071
240.913	0.175547
243.805	0.497424
246.698	2.91658
249.591	0.377562
252.483	0.453942
255.376	2.43061
258.269	4.26569
261.161	3.01535
264.054	1.69306
266.947	1.87285
269.84	4.14303
272.732	2.51171
275.625	2.49616
278.518	4.98785
281.41	2.03566
284.303	1.34078
287.196	2.58989
290.089	7.03508
292.981	4.54316
295.874	6.96558
298.767	10.1849
301.659	7.67899
304.552	15.5507
307.445	15.2882
310.337	15.4168
313.23	13.5513
316.123	9.67357
319.015	12.762
321.908	12.0414
324.801	11.5087
327.694	12.3152
330.586	14.0297
333.479	13.0017
336.372	11.277
339.264	12.2991
342.157	14.8218
345.05	13.5809
347.942	12.9529
350.835	16.5559
353.728	9.80287
356.621	13.7497
359.513	17.8755
362.406	17.9373
365.299	15.6523
368.191	20.0304
371.084	25.4906
373.977	29.4726
376.87	33.6298
379.762	37.9544
382.655	36.5465
385.548	41.6478
388.44	27.7319
391.333	18.6944
394.226	8.01736
397.118	5.95677
400.011	3.70134
402.904	1.58155
405.796	1.60821
408.689	1.3294
411.582	0.307347
414.475	3.13631
417.367	1.79512
420.26	2.05667
423.153	2.83598
426.045	1.03721
428.938	0.324464
431.831	3.87402
434.724	1.80258
437.616	4.84069
440.509	2.62123
443.402	4.20204
446.294	2.45171
449.187	3.59153
452.08	0.128588
454.972	0.042828
457.865	2.41892
460.758	1.89921
463.651	1.58079
466.543	3.71002
469.436	1.2838
472.329	2.82932
475.221	1.82443
478.114	3.04371
481.007	0.226271
483.899	2.18679
486.792	3.79948
489.685	1.5107
492.577	1.88839
495.47	2.34486
498.363	2.58435
501.256	0.380124
504.148	1.8801
507.041	2.93555
509.934	1.15416
512.826	1.66836
515.719	0.142344
518.612	1.85503
521.505	2.93149
524.397	1.45057
527.29	1.11109
530.183	5.44709
533.075	3.48684
535.968	1.8498
538.861	2.4878
541.753	3.05537
544.646	2.64233
547.539	2.50728
550.432	2.39668
553.324	2.72003
556.217	3.59272
559.11	2.95084
562.002	2.52642
564.895	3.15645
567.788	5.42229
570.68	3.79575
573.573	3.74321
576.466	1.09297
579.359	1.96595
582.251	2.73252
585.144	1.07477
588.037	0.070238
590.929	2.82628
593.822	2.70852
596.715	0.581681
599.607	0.481433
602.5	0.883361
605.393	3.65697
608.285	1.28112
611.178	2.20744
614.071	2.81859
616.964	2.13413
619.856	1.39457
622.749	1.79929
625.642	1.92119
628.534	0.470249
631.427	0.185038
634.32	4.12579
637.212	0.617516
640.105	2.27761
642.998	3.06847
645.891	2.94025
648.783	1.1747
651.676	0.224926
654.569	2.16389
657.461	2.03113
660.354	3.0539
663.247	3.0392
666.139	6.40768
669.032	5.01486
671.925	2.64588
674.818	3.21698
677.71	3.60426
680.603	1.81879
683.496	0.42746
686.388	2.34141
689.281	4.3035
692.174	1.28479
695.067	1.26221
697.959	6.0378
700.852	2.54838
703.745	2.20926
706.637	4.28142
709.53	1.2251
712.423	2.77211
715.315	5.04427
718.208	2.78308
721.101	0.069149
723.994	0.071312
726.886	1.69121
729.779	1.93784
732.672	2.29778
735.564	0.540307
738.457	1.35582
741.35	4.78397
744.242	4.43865
747.135	1.66949
750.028	0.422668
752.92	2.35696
755.813	3.15551
758.706	1.29324
761.599	2.32202
764.491	4.48102
767.384	3.13515
770.277	2.29197
773.169	2.0072
776.062	4.88112
778.955	1.87562
781.847	0.190953
784.74	3.86577
787.633	3.1438
790.526	3.66887
793.418	3.63674
796.311	3.1165
799.204	0.465096
802.096	0.453012
804.989	1.01283
807.882	0.335164
810.774	3.97785
813.667	4.13544
816.56	3.82027
819.453	4.3012
822.345	1.34864
825.238	1.73119
828.131	5.37071
831.023	3.44048
833.916	1.6321
836.809	2.38207
839.702	1.32472
842.594	0.077264
845.487	0.624972
848.38	1.44213
851.272	3.88036
854.165	5.55853
857.058	3.62245
859.95	2.58382
862.843	4.40971
865.736	2.5911
868.629	0.782999
871.521	2.71206
874.414	2.40971
877.307	1.19886
880.199	0.060192
883.092	2.82462
885.985	0.313834
888.877	4.66414
891.77	4.19795
894.663	1.89173
897.556	2.13017
900.448	2.76037
903.341	1.22063
906.234	3.4065
909.126	0.119397
912.019	2.45789
914.912	2.38783
917.804	2.74514
920.697	4.06056
923.59	2.14365
926.482	5.97848
929.375	3.88463
932.268	2.15009
935.161	3.56368
938.053	2.10147
940.946	3.9922
943.839	1.77115
946.731	2.12117
949.624	2.75344
952.517	1.14186
955.409	6.54488
958.302	4.80252
961.195	1.05207
964.088	4.10409
966.98	0.360941
969.873	1.70541
972.766	1.16402
975.658	0.126061
978.551	3.8966
981.444	2.26758
984.337	0.699557
987.229	3.77045
990.122	2.91233
993.015	4.16608
995.907	0.538095
998.8	2.68999
1001.69	5.0988
1004.59	3.84982
1007.48	4.35886
1010.37	1.69661
1013.26	3.24943
1016.16	1.00433
1019.05	4.217
1021.94	1.14925
1024.83	4.82456
1027.73	3.81735
1030.62	2.89924
1033.51	1.91663
1036.4	0.709197
1039.3	1.3574
1042.19	3.78289
1045.08	0.328277
1047.98	1.01418
1050.87	3.63299
1053.76	1.94867
1056.65	3.51494
1059.55	3.43241
1062.44	4.45518
1065.33	4.99335
1068.22	3.58008
1071.12	4.95535
1074.01	2.61571
1076.9	6.88711
1079.8	1.07041
1082.69	3.26172
1085.58	2.08376
1088.47	2.8449
1091.37	5.3687
1094.26	2.74377
1097.15	4.46874
1100.04	1.69298
1102.94	3.78386
1105.83	4.11243
1108.72	3.33569
1111.62	0.482042
1114.51	2.09762
1117.4	4.03818
1120.29	4.20179
1123.19	3.97453
1126.08	4.26718
1128.97	6.38976
1131.86	4.36189
1134.76	2.08959
1137.65	1.99942
1140.54	2.04791
1143.43	4.20681
1146.33	3.11775
1149.22	1.55331
1152.11	3.56352
1155.01	2.75794
1157.9	5.13331
1160.79	3.10304
1163.68	3.96519
1166.58	5.62062
1169.47	4.01909
1172.36	2.3653
1175.26	1.25964
1178.15	1.15519
1181.04	2.47696
1183.93	2.07186
1186.83	4.74166
1189.72	2.69028
1192.61	1.95395
1195.5	2.26288
1198.4	1.99004
1201.29	3.61631
1204.18	3.28892
1207.07	5.19329
1209.97	5.82487
1212.86	3.33495
1215.75	2.49874
1218.64	0.239331
1221.54	1.3113
1224.43	1.66312
1227.32	2.77218
1230.22	2.46684
1233.11	3.06119
1236	1.06209
1238.89	3.32762
1241.79	3.03967
1244.68	3.47246
1247.57	2.98971
1250.46	2.69409
1253.36	3.44667
1256.25	5.47779
1259.14	0.13652
1262.04	2.84508
1264.93	6.39881
1267.82	0.785398
1270.71	2.62841
1273.61	0.587903
1276.5	2.0022
1279.39	3.37558
1282.29	1.19057
1285.18	3.57513
1288.07	0.336219
1290.96	1.2209
1293.86	3.02571
1296.75	1.46301
1299.64	0.540293
1302.53	0.744504
