Measurement: Raman, 780 nm, unoriented, Raman Data Processed
Mineral: Tennantite-(Fe)
Rruff sample: R110024
Ideal chemistry: Cu^1+^_6_(Cu^1+^_4_Fe^2+^_2_)As^3+^_4_S^2-^_13_
Locality: Quiruvilca, La Libertad Department, Peru
Source: William Pinch
Description: Black metallic tetrahedral crystals associated with pinkish grey famatinite, R110022, on pyrite
Raman shift (cm-1)	intensity
204.901	0
207.794	1.8791
210.686	2.94651
213.579	1.36964
216.472	0.819043
219.364	2.01183
222.257	2.0522
225.15	5.11704
228.042	1.69434
230.935	1.77593
233.828	1.64588
236.721	2.13021
239.613	1.82666
242.506	1.61203
245.399	1.18215
248.292	1.7743
251.184	0.858341
254.077	1.97663
256.969	1.9622
259.862	2.31967
262.755	3.15552
265.648	1.27412
268.54	1.78999
271.433	3.74801
274.326	2.81526
277.218	4.54235
280.111	5.22239
283.004	4.05511
285.897	2.52227
288.789	5.21898
291.682	7.65057
294.575	8.63506
297.467	8.07047
300.36	11.2517
303.253	9.53351
306.145	12.2872
309.038	11.0537
311.931	13.1898
314.824	9.33655
317.716	5.50497
320.609	5.4344
323.502	5.22703
326.394	4.73908
329.287	3.12057
332.18	4.34873
335.072	4.07363
337.965	2.04174
340.858	5.34497
343.75	4.296
346.643	4.66413
349.536	3.34205
352.429	5.00593
355.321	4.51516
358.214	5.06372
361.107	7.07559
364	7.3944
366.892	5.99642
369.785	7.70112
372.678	10.8025
375.57	14.1644
378.463	17.7957
381.356	20.0773
384.248	23.3552
387.141	21.6163
390.034	12.6594
392.926	7.41716
395.819	1.05748
398.712	3.7336
401.605	2.51136
404.497	0.515994
407.39	0.958962
410.283	0.082911
413.175	0.689093
416.068	0.975887
418.961	1.35025
421.853	0.200671
424.746	1.76016
427.639	1.30704
430.532	2.55686
433.424	1.88158
436.317	2.66927
439.21	1.98108
442.102	3.30083
444.995	3.61285
447.888	2.30445
450.781	0.784195
453.673	2.02341
456.566	3.35691
459.459	1.84246
462.351	2.18621
465.244	1.77916
468.137	3.68081
471.029	1.58741
473.922	1.04988
476.815	1.48032
479.707	1.98514
482.6	0.864871
485.493	1.84211
488.386	0.037006
491.278	0.927571
494.171	1.66112
497.064	0.309679
499.956	1.2915
502.849	1.54972
505.742	2.03916
508.635	0.884511
511.527	1.27937
514.42	0.839338
517.313	0.434183
520.205	1.48582
523.098	0.905529
525.991	3.48261
528.883	3.39602
531.776	2.00785
534.669	1.04648
537.562	2.16523
540.454	1.08731
543.347	0.338393
546.24	1.09869
549.132	0.75993
552.025	1.92262
554.918	2.57074
557.81	1.95136
560.703	1.65661
563.596	1.03948
566.489	3.0475
569.381	2.39499
572.274	2.60072
575.167	0.351612
578.059	1.70621
580.952	1.26013
583.845	1.66847
586.737	0.049475
589.63	2.11621
592.523	1.9804
595.415	0.817406
598.308	0.653018
601.201	0.05633
604.094	1.99282
606.986	1.5407
609.879	1.1898
612.772	1.4177
615.664	1.35852
618.557	0.580138
621.45	1.71002
624.342	1.30346
627.235	0.143961
630.128	0.080019
633.021	3.09818
635.913	1.09947
638.806	0.998858
641.699	2.33467
644.591	1.29138
647.484	1.81993
650.377	0.86864
653.269	1.03567
656.162	0.696314
659.055	0.999815
661.948	0.973883
664.84	2.60461
667.733	3.79042
670.626	1.85229
673.518	1.81465
676.411	1.19405
679.304	2.69058
682.197	3.28162
685.089	2.30292
687.982	2.74223
690.875	1.18852
693.767	3.70053
696.66	1.40569
699.553	0.977502
702.445	0.100628
705.338	1.73768
708.231	1.50998
711.124	3.22929
714.016	2.1169
716.909	0.815535
719.802	1.0316
722.694	1.84247
725.587	0.754982
728.48	2.54761
731.372	2.30287
734.265	2.09208
737.158	2.90346
740.051	2.57865
742.943	0.977353
745.836	0.997976
748.729	2.90306
751.621	1.84618
754.514	0.080791
757.407	0.859566
760.299	2.76556
763.192	1.81527
766.085	0.949807
768.977	1.7615
771.87	3.00717
774.763	0.783906
777.656	0.57396
780.548	2.4259
783.441	2.12784
786.334	3.27302
789.226	2.20946
792.119	2.03935
795.012	0.59866
797.904	1.31722
800.797	0.258815
803.69	1.24464
806.583	2.73754
809.475	3.12738
812.368	3.22195
815.261	2.95843
818.153	0.892781
821.046	0.673671
823.939	2.57551
826.832	3.56995
829.724	1.11062
832.617	0.807363
835.51	2.14232
838.402	1.8832
841.295	1.61141
844.188	0.950372
847.08	1.83206
849.973	1.82628
852.866	1.2644
855.759	2.12946
858.651	2.3913
861.544	0.425073
864.437	1.89773
867.329	0.659877
870.222	1.24508
873.115	1.80685
876.007	2.9753
878.9	0.254301
881.793	3.38994
884.686	2.18745
887.578	1.12008
890.471	0.474254
893.364	0.968235
896.256	1.04962
899.149	2.91995
902.042	0.910192
904.934	2.30738
907.827	1.88381
910.72	1.59957
913.612	2.69989
916.505	1.24382
919.398	3.95781
922.291	2.24536
925.183	1.65703
928.076	1.86366
930.969	1.82001
933.861	3.45483
936.754	1.41129
939.647	1.41994
942.54	1.36294
945.432	1.88883
948.325	2.87898
951.218	2.2084
954.11	1.70352
957.003	2.27863
959.896	1.30733
962.788	2.89666
965.681	0.539754
968.574	0.913982
971.467	2.52258
974.359	2.42312
977.252	2.49057
980.145	1.34366
983.037	1.62686
985.93	3.21307
988.823	2.33213
991.716	1.59402
994.608	1.33795
997.501	2.02359
1000.39	2.38207
1003.29	2.30254
1006.18	0.121006
1009.07	3.63124
1011.96	1.03098
1014.86	2.40423
1017.75	3.15402
1020.64	1.64916
1023.53	0.552786
1026.43	0.135323
1029.32	0.527785
1032.21	2.64389
1035.11	0.027618
1038	1.09504
1040.89	1.65407
1043.78	2.19133
1046.68	1.3439
1049.57	2.06608
1052.46	2.67069
1055.36	1.64104
1058.25	0.542156
1061.14	1.41623
1064.03	0.534024
1066.93	2.78622
1069.82	0.987686
1072.71	1.19726
1075.6	2.57816
1078.5	2.47045
1081.39	4.49464
1084.28	1.82058
1087.17	1.95123
1090.07	0.905393
1092.96	0.962107
1095.85	2.65645
1098.74	2.65609
1101.64	1.35794
1104.53	1.40979
1107.42	1.36676
1110.32	3.82405
1113.21	0.962519
1116.1	3.8508
1118.99	2.87035
1121.89	1.34109
1124.78	1.02447
1127.67	1.43078
1130.57	3.51857
1133.46	1.96439
1136.35	1.00106
1139.24	1.85897
1142.14	1.90673
1145.03	2.76446
1147.92	1.95811
1150.81	2.72933
1153.71	4.09167
1156.6	1.75496
1159.49	2.40869
1162.38	1.4282
1165.28	2.63964
1168.17	1.98794
1171.06	1.38018
1173.96	2.32361
1176.85	2.07746
1179.74	3.39974
1182.63	2.09619
1185.53	2.01805
1188.42	0.752359
1191.31	3.65182
1194.2	3.08805
1197.1	1.47013
1199.99	1.99994
1202.88	1.0993
1205.78	2.1045
1208.67	1.74289
1211.56	2.6781
1214.45	1.60048
1217.35	2.18021
1220.24	1.71282
1223.13	1.93823
1226.02	2.02501
1228.92	3.3503
1231.81	2.49437
1234.7	1.70938
1237.6	3.01011
1240.49	3.5263
1243.38	1.17433
1246.27	2.66201
1249.17	3.03296
1252.06	0.100377
1254.95	3.9943
1257.84	2.04713
1260.74	2.56285
1263.63	3.85027
1266.52	1.0859
1269.41	4.5028
1272.31	2.92794
1275.2	1.97532
1278.09	2.47013
1280.98	2.54834
1283.88	0.599711
