Measurement: Raman, 532 nm, unoriented, Raman Data Processed
Mineral: Tennantite-(Zn)
Rruff sample: R050474
Ideal chemistry: Cu^1+^_6_(Cu^1+^_4_Zn^2+^_2_)As^3+^_4_S^2-^_13_
Locality: Daily Judge mine, Park City, Utah, USA
Source: California Institute of Technology
Description: Black crystals associated with pyrite
Measured chemistry: (Cu_10.01_Zn_1.66_Fe_0.33_)_Î£=12_As_4.00_S_13.00_
Raman shift (cm-1)	intensity
97.3625	0
100.737	0.049305
104.112	0.273052
107.487	0.783213
110.862	0.240196
114.237	0.740043
117.611	0.334936
120.986	0.632584
124.361	0.799667
127.736	1.15506
131.111	1.60564
134.486	1.36613
137.86	2.07353
141.235	2.61316
144.61	2.04924
147.985	1.11955
151.359	0.610828
154.734	0.934043
158.109	0.816694
161.484	0.925345
164.859	0.659146
168.234	0.73444
171.608	0.373552
174.983	0.431694
178.358	0.675891
181.733	0.525269
185.108	0.664226
188.482	0.559808
191.857	0.386829
195.232	0.412351
198.607	0.440859
201.982	0.455132
205.357	0.27201
208.731	0.000733
212.106	0.027945
215.481	0.09536
218.856	0.363124
222.231	0.047608
225.606	0.252359
228.98	0.206793
232.355	0.084586
235.73	0.253714
239.105	0.202739
242.48	0.113029
245.854	0.292698
249.229	0.313113
252.604	0.090155
255.979	0.13969
259.354	0.256873
262.728	0.338241
266.103	0.026154
269.478	0.11332
272.853	0.285761
276.228	0.320295
279.603	0.290309
282.977	0.468166
286.352	0.5106
289.727	0.377802
293.102	0.393898
296.477	0.683965
299.851	0.685676
303.226	1.02029
306.601	1.46391
309.976	1.19439
313.351	1.61816
316.726	1.70224
320.1	1.86722
323.475	1.65145
326.85	1.62926
330.225	1.88752
333.6	2.2242
336.974	2.09998
340.349	2.30302
343.724	2.73631
347.099	2.57825
350.474	2.39599
353.849	2.1684
357.223	1.69274
360.598	1.68009
363.973	2.00363
367.348	2.54936
370.723	3.00915
374.097	3.30505
377.472	3.26584
380.847	3.86401
384.222	4.6455
387.597	5.58534
390.971	3.80492
394.346	1.69284
397.721	0.64887
401.096	0.359681
404.471	0.30198
407.846	0.048927
411.22	0.093742
414.595	0.231915
417.97	0.0208
421.345	0.147482
424.72	0.130007
428.094	0.161599
431.469	0.195856
434.844	0.069949
438.219	0.001658
441.594	0.379567
444.969	0.144882
448.343	0.251716
451.718	0.195893
455.093	0.180115
458.468	0.228594
461.843	0.285033
465.217	0.481758
468.592	0.300488
471.967	0.336173
475.342	0.360296
478.717	0.160358
482.091	0.492694
485.466	0.169703
488.841	0.331061
492.216	0.516091
495.591	0.388042
498.966	0.117168
502.34	0.106646
505.715	0.205862
509.09	0.197666
512.465	0.261077
515.84	0.273095
519.215	0.452435
522.589	0.500733
525.964	0.269146
529.339	0.371469
532.714	0.418131
536.089	0.433314
539.463	0.005555
542.838	0.095142
546.213	0.413452
549.588	0.323354
552.963	0.075152
556.337	0.21995
559.712	0.186575
563.087	0.092122
566.462	0.151325
569.837	0.210214
573.212	0.163452
576.586	0.245245
579.961	0.373899
583.336	0.24288
586.711	0.181783
590.086	0.347897
593.46	0.140246
596.835	0.242576
600.21	0.111084
603.585	0.196129
606.96	0.075324
610.335	0.162767
613.709	0.45195
617.084	0.352963
620.459	0.301452
623.834	0.359719
627.209	0.160765
630.583	0.238424
633.958	0.369226
637.333	0.371275
640.708	0.125017
644.083	0.248764
647.457	0.116632
650.832	0.217899
654.207	0.140654
657.582	0.304828
660.957	0.554187
664.332	0.323053
667.706	0.36989
671.081	0.302637
674.456	0.493078
677.831	0.407446
681.206	0.354066
684.58	0.382183
687.955	0.190703
691.33	0.206072
694.705	0.280692
698.08	0.214735
701.455	0.561281
704.829	0.323305
708.204	0.139051
711.579	0.311666
714.954	0.312275
718.329	0.228116
721.703	0.128155
725.078	0.297271
728.453	0.162321
731.828	0.086822
735.203	0.21731
738.577	0.289301
741.952	0.165552
745.327	0.125821
748.702	0.274989
752.077	0.07789
755.452	0.145958
758.826	0.298102
762.201	0.238065
765.576	0.227591
768.951	0.004178
772.326	0.291107
775.701	0.022413
779.075	0.08738
782.45	0.031
785.825	0.006851
789.2	0.313192
792.574	0.111439
795.949	0.20015
799.324	0.105411
802.699	0.264459
806.074	0.022033
809.449	0.216538
812.823	0.249335
816.198	0.026363
819.573	0.417317
822.948	0.079417
826.323	0.063686
829.697	0.270312
833.072	0.414822
836.447	0.08965
839.822	0.360161
843.197	0.149428
846.572	0.349568
849.946	0.036802
853.321	0.274425
856.696	0.066931
860.071	0.165346
863.446	0.23162
866.821	0.05551
870.195	0.085625
873.57	0.058579
876.945	0.001368
880.32	0.033827
883.695	0.168775
887.069	0.440921
890.444	0.139437
893.819	0.098454
897.194	0.272519
900.569	0.206041
903.943	0.193516
907.318	0.082423
910.693	0.107922
914.068	0.053695
917.443	0.12155
920.818	0.151592
924.192	0.054408
927.567	0.103061
930.942	0.025929
934.317	0.208145
937.692	0.103713
941.067	0.069673
944.441	0.195345
947.816	0.067896
951.191	0.049175
954.566	0.177277
957.941	0.520911
961.315	0.149067
964.69	0.286621
968.065	0.2781
971.44	0.340717
974.815	0.210807
978.189	0.072534
981.564	0.361011
984.939	0.215101
988.314	0.167568
991.689	0.188848
995.063	0.392395
998.438	0.293488
1001.81	0.085699
1005.19	0.23467
1008.56	0.19863
1011.94	0.301722
1015.31	0.124975
1018.69	0.061074
1022.06	0.111378
1025.44	0.211001
1028.81	0.02277
1032.19	0.165701
1035.56	0.169665
1038.94	0.088762
1042.31	0.295219
1045.69	0.307732
1049.06	0.208673
1052.43	0.301641
1055.81	0.407817
1059.18	0.393778
1062.56	0.257339
1065.93	0.242191
1069.31	0.163763
1072.68	0.292123
1076.06	0.12335
1079.43	0.2946
1082.81	0.164013
1086.18	0.217487
1089.56	0.23512
1092.93	0.15725
1096.31	0.27589
1099.68	0.10127
1103.06	0.095606
1106.43	0.113326
1109.81	0.241844
1113.18	0.285678
1116.56	0.097623
1119.93	0.26916
1123.31	0.081198
1126.68	0.375112
1130.06	0.369952
1133.43	0.150768
1136.81	0.039495
1140.18	0.307674
1143.56	0.328129
1146.93	0.234112
1150.31	0.312702
1153.68	0.029907
1157.06	0.249629
1160.43	0.053495
1163.8	0.307896
1167.18	0.211748
1170.55	0.198599
1173.93	0.298456
1177.3	0.092639
1180.68	0.338454
1184.05	0.404214
1187.43	0.39411
1190.8	0.380977
1194.18	0.124796
1197.55	0.196554
1200.93	0.313855
1204.3	0.172936
1207.68	0.340074
1211.05	0.146335
1214.43	0.1661
1217.8	0.193449
1221.18	0.186671
1224.55	0.013715
1227.93	0.347677
1231.3	0.146796
1234.67	0.234513
1238.05	0.324297
1241.42	0.233671
1244.8	0.36173
1248.17	0.399756
1251.55	0.384434
1254.92	0.289967
1258.3	0.104723
1261.67	0.174282
1265.05	0.185886
1268.42	0.26923
1271.8	0.258356
1275.17	0.405899
1278.55	0.209747
1281.92	0.274263
1285.3	0.060814
1288.67	0.09956
1292.05	0.11805
1295.42	0.173336
