Measurement: Raman, 532 nm, unoriented, Raman Data Processed
Mineral: Tennantite-(Zn)
Rruff sample: R050558
Ideal chemistry: Cu^1+^_6_(Cu^1+^_4_Zn^2+^_2_)As^3+^_4_S^2-^_13_
Locality: Casaplaca mine, Huarochiri Province, Lima Department, Peru
Source: Dave Bunk Minerals
Description: Group of black tetrahedra
Measured chemistry: (Cu_10.07_Zn_1.83_Fe_0.10_)_Σ=12_(As_2.97_Sb_1.03_)_Σ=4_S_13.00_ ; = light phase. Dark phase = (Cu_10.09_Zn_1.80_Fe_0.11_)_Σ=12_(As_2.85_Sb_1.15_)_Σ=4_S_13.00_
Raman shift (cm-1)	intensity
101.219	0
104.594	0.783028
107.969	1.74183
111.344	0.808047
114.719	2.53251
118.094	1.75821
121.468	2.6988
124.843	2.31754
128.218	2.33686
131.593	4.15604
134.968	3.18443
138.342	3.47804
141.717	3.1816
145.092	3.37623
148.467	1.5684
151.842	0.991872
155.216	2.25137
158.591	1.29516
161.966	2.2218
165.341	1.11402
168.716	1.10743
172.09	0.399102
175.465	1.08936
178.84	1.7577
182.215	1.45393
185.59	1.79576
188.965	1.92887
192.339	0.84306
195.714	0.592397
199.089	1.13
202.464	1.98778
205.839	1.30825
209.214	0.37466
212.588	0.170164
215.963	0.820696
219.338	0.978311
222.713	0.051684
226.088	1.06042
229.462	0.817196
232.837	0.952801
236.212	1.43999
239.587	0.359045
242.962	1.22554
246.337	0.807403
249.711	0.792202
253.086	0.424863
256.461	0.279498
259.836	1.16871
263.211	0.919398
266.585	0.391425
269.96	0.064544
273.335	0.47128
276.71	1.07093
280.085	0.613646
283.459	1.64044
286.834	1.82982
290.209	1.08111
293.584	1.19861
296.959	1.79963
300.334	1.81746
303.708	2.38145
307.083	3.47622
310.458	2.41408
313.833	2.49064
317.208	2.76866
320.582	3.22137
323.957	2.78807
327.332	3.34036
330.707	4.92448
334.082	4.92638
337.457	4.1581
340.831	4.46755
344.206	5.99372
347.581	5.73559
350.956	5.19245
354.331	5.40945
357.705	5.10333
361.08	6.23169
364.455	6.36657
367.83	6.52619
371.205	6.03532
374.579	5.87767
377.954	5.95569
381.329	7.02684
384.704	7.19154
388.079	5.99285
391.454	2.58804
394.828	1.58673
398.203	0.371452
401.578	0.381597
404.953	0.056015
408.328	0.235032
411.702	0.281162
415.077	0.798896
418.452	0.051754
421.827	0.154596
425.202	0.488021
428.577	0.373048
431.951	0.712288
435.326	0.18628
438.701	0.289383
442.076	0.98065
445.451	0.765266
448.825	0.734483
452.2	0.642357
455.575	0.960382
458.95	0.070704
462.325	0.700046
465.7	0.857763
469.074	1.21255
472.449	0.990833
475.824	0.811705
479.199	0.311308
482.574	0.799452
485.948	1.20864
489.323	0.693359
492.698	0.936129
496.073	0.875545
499.448	0.62158
502.822	0.367638
506.197	0.501712
509.572	0.279721
512.947	0.643333
516.322	0.811621
519.697	0.892668
523.071	1.2316
526.446	1.02041
529.821	1.28782
533.196	0.75097
536.571	1.28685
539.946	0.120402
543.32	0.099837
546.695	0.499415
550.07	0.830132
553.445	0.249023
556.82	0.400742
560.194	0.559184
563.569	0.540469
566.944	0.723046
570.319	0.831435
573.694	1.01969
577.068	0.832955
580.443	1.08073
583.818	0.909903
587.193	0.751285
590.568	1.00835
593.942	0.705759
597.317	0.928987
600.692	0.030568
604.067	0.135686
607.442	0.057916
610.817	0.162234
614.191	0.900244
617.566	0.89596
620.941	1.02433
624.316	0.906988
627.691	0.148296
631.066	0.579774
634.44	1.03619
637.815	0.711791
641.19	0.087111
644.565	0.340272
647.94	0.274071
651.314	0.31455
654.689	0.034048
658.064	0.075125
661.439	0.234555
664.814	0.463975
668.188	0.859319
671.563	0.524179
674.938	1.36487
678.313	0.434402
681.688	0.584751
685.063	0.485885
688.437	0.518679
691.812	0.135759
695.187	1.0335
698.562	0.754821
701.937	1.17997
705.312	0.099293
708.686	0.195761
712.061	0.967893
715.436	1.55741
718.811	0.389473
722.186	0.864869
725.56	0.54817
728.935	0.381997
732.31	0.006237
735.685	0.86018
739.06	1.16381
742.434	0.146751
745.809	0.61108
749.184	0.779079
752.559	0.163657
755.934	0.635344
759.308	1.22253
762.683	1.21646
766.058	1.06251
769.433	0.065236
772.808	0.709446
776.183	0.625252
779.557	0.004304
782.932	0.146679
786.307	0.32508
789.682	0.994032
793.057	0.039292
796.432	0.503602
799.806	0.114766
803.181	0.389469
806.556	0.44458
809.931	0.420699
813.306	0.925311
816.68	0.080245
820.055	0.991762
823.43	0.316256
826.805	0.564741
830.18	1.16531
833.554	0.739961
836.929	0.467855
840.304	0.608912
843.679	0.233656
847.054	0.711024
850.428	0.158377
853.803	0.571831
857.178	0.046082
860.553	0.031445
863.928	0.569696
867.303	0.263167
870.677	0.842604
874.052	0.45079
877.427	0.784744
880.802	0.43565
884.177	0.817427
887.552	1.13348
890.926	0.369352
894.301	0.558351
897.676	0.626458
901.051	0.236851
904.426	0.848906
907.8	0.41251
911.175	0.337047
914.55	0.187482
917.925	0.413979
921.3	0.089959
924.674	0.563778
928.049	0.119221
931.424	0.539318
934.799	0.982303
938.174	0.436803
941.549	0.820391
944.923	1.05491
948.298	0.2168
951.673	0.841609
955.048	0.759633
958.423	1.73938
961.798	0.391355
965.172	0.908986
968.547	0.942333
971.922	1.08632
975.297	0.564362
978.672	0.378239
982.046	0.742583
985.421	0.79615
988.796	0.915556
992.171	0.326525
995.546	1.4161
998.92	0.857296
1002.29	0.122126
1005.67	0.166298
1009.04	1.05859
1012.42	1.01367
1015.79	0.512318
1019.17	0.28775
1022.54	0.174838
1025.92	0.86276
1029.29	0.324319
1032.67	0.648984
1036.04	0.726785
1039.42	0.045339
1042.79	0.686847
1046.17	1.17473
1049.54	0.388981
1052.92	0.280513
1056.29	0.788417
1059.67	1.32054
1063.04	0.769286
1066.42	0.388977
1069.79	0.908025
1073.17	0.455861
1076.54	0.375597
1079.92	0.714658
1083.29	1.08732
1086.67	0.756153
1090.04	0.646363
1093.41	0.593075
1096.79	0.198173
1100.16	0.518895
1103.54	0.442113
1106.91	0.44104
1110.29	0.466895
1113.66	0.94143
1117.04	0.47611
1120.41	0.329873
1123.79	0.155869
1127.16	1.42412
1130.54	1.50725
1133.91	0.57365
1137.29	0.024684
1140.66	1.48042
1144.04	1.77695
1147.41	0.604869
1150.79	0.854422
1154.16	0.13517
1157.54	0.820638
1160.91	0.068049
1164.29	0.411889
1167.66	0.844098
1171.04	1.09883
1174.41	0.785154
1177.79	0.227435
1181.16	0.845708
1184.54	0.806882
1187.91	0.975267
1191.29	0.940933
1194.66	0.051317
1198.04	0.07697
1201.41	0.711975
1204.78	0.48141
1208.16	0.36481
1211.53	0.103316
1214.91	0.551973
1218.28	0.065361
1221.66	0.249543
1225.03	0.352759
1228.41	0.693431
1231.78	1.00049
1235.16	0.453737
1238.53	0.77412
1241.91	0.891673
1245.28	0.799317
1248.66	1.06209
1252.03	0.616562
1255.41	0.579347
1258.78	0.978873
1262.16	0.087167
1265.53	0.517114
1268.91	1.13445
1272.28	0.63241
1275.65	0.866806
1279.03	0.923027
1282.4	1.17546
1285.78	0.39609
1289.15	0
