Measurement: Raman, 780 nm, unoriented, Raman Data Processed
Mineral: Tenorite
Rruff sample: R120076
Ideal chemistry: Cu^2+^O
Locality: Synthetic
Source: Deng-Shiu Yang
Description: Dark red crystals, some are triply twinned, platy ones are doubly twinned, and elongated prismatic crystals are untwinned.
Raman shift (cm-1)	intensity
184.17	0
187.063	2.07037
189.955	2.57529
192.848	4.07822
195.741	10.2006
198.633	8.17798
201.526	3.97549
204.419	3.5939
207.311	1.21295
210.204	0.109375
213.097	1.88925
215.99	0.228943
218.882	1.72226
221.775	2.25922
224.668	1.11197
227.56	0.378479
230.453	1.85763
233.346	2.62109
236.238	5.16748
239.131	7.83264
242.024	6.94367
244.917	15.113
247.809	26.066
250.702	24.3906
253.595	30.9268
256.487	32.0482
259.38	30.8644
262.273	36.0045
265.166	39.0794
268.058	43.5978
270.951	51.1551
273.844	56.5415
276.736	66.3205
279.629	81.763
282.522	97.9356
285.414	116.401
288.307	156.013
291.2	224.258
294.092	288.27
296.985	262.652
299.878	152.7
302.771	70.4738
305.663	37.9556
308.556	26.6923
311.449	19.5397
314.341	18.3585
317.234	18.4905
320.127	21.2306
323.019	28.9625
325.912	38.8986
328.805	53.0581
331.698	79.3985
334.59	113.808
337.483	170.194
340.376	229.388
343.268	255.051
346.161	212.327
349.054	142.127
351.947	90.9275
354.839	62.4951
357.732	41.8363
360.625	30.9004
363.517	25.9666
366.41	17.3069
369.303	16.5546
372.195	7.67273
375.088	4.40271
377.981	2.38284
380.873	1.6673
383.766	4.62802
386.659	3.35345
389.552	2.03696
392.444	1.27777
395.337	1.49948
398.23	3.1633
401.123	5.36346
404.015	6.95761
406.908	8.2327
409.801	8.88214
412.693	8.83409
415.586	8.94446
418.479	10.7909
421.371	12.1374
424.264	6.68616
427.157	10.3094
430.05	11.0231
432.942	10.3753
435.835	8.09418
438.728	13.5394
441.62	13.5993
444.513	12.6252
447.406	14.429
450.298	11.0823
453.191	14.0253
456.084	12.3097
458.976	20.9752
461.869	16.467
464.762	20.6419
467.655	13.5648
470.547	17.955
473.44	14.6897
476.333	15.9012
479.225	12.5413
482.118	16.4221
485.011	13.3686
487.904	10.1221
490.796	8.61499
493.689	9.42279
496.582	8.23413
499.474	5.06616
502.367	7.08917
505.26	2.82117
508.152	2.28583
511.045	4.51386
513.938	4.17493
516.83	1.98346
519.723	1.45831
522.616	2.01495
525.509	0.277161
528.401	0.153137
531.294	2.1322
534.187	0.370178
537.079	3.02033
539.972	0.26886
542.865	2.89844
545.757	2.18958
548.65	0.750305
551.543	4.50897
554.436	5.74799
557.328	5.60431
560.221	4.47095
563.114	3.68774
566.006	1.38171
568.899	2.96094
571.792	5.24976
574.684	3.93854
577.577	5.77844
580.47	4.75671
583.362	6.56036
586.255	8.44092
589.148	9.35034
592.041	9.41156
594.933	7.3485
597.826	6.18908
600.719	6.42789
603.611	5.6015
606.504	5.33771
609.397	7.09949
612.29	9.39661
615.182	10.6134
618.075	19.9236
620.968	23.9846
623.86	32.5975
626.753	38.9916
629.646	39.7136
632.538	30.5179
635.431	19.7753
638.324	16.457
641.217	10.1785
644.109	7.11047
647.002	3.75909
649.895	3.5669
652.787	6.65442
655.68	1.96295
658.573	2.11865
661.466	0.470764
664.358	8.21094
667.251	1.99347
670.144	2.5094
673.036	0.727661
675.929	1.0799
678.822	0.71637
681.714	2.41571
684.607	1.52344
687.5	1.89459
690.393	0.10437
693.285	0.967651
696.178	0.44342
699.071	0.455322
701.963	0.58783
704.856	2.94128
707.749	5.13965
710.641	4.85571
713.534	4.10461
716.427	10.1838
719.319	8.22559
722.212	12.9522
725.105	17.1341
727.998	19.5012
730.89	22.8215
733.783	25.8562
736.676	25.0208
739.568	23.7118
742.461	21.3391
745.354	22.8833
748.246	22.4316
751.139	19.5193
754.032	18.1492
756.925	16.5805
759.817	13.9989
762.71	10.8683
765.603	4.67023
768.495	2.51422
771.388	3.58136
774.281	1.88946
777.173	1.82987
780.066	1.32129
782.959	2.0174
785.852	1.65802
788.744	0.922546
791.637	3.57678
794.53	3.19745
797.422	0.497864
800.315	2.09454
803.208	1.34918
806.101	3.34064
808.993	0.394104
811.886	2.50995
814.779	0.115723
817.671	1.14056
820.564	4.79175
823.457	4.71985
826.349	5.25354
829.242	6.07031
832.135	10.9205
835.028	7.60187
837.92	9.29767
840.813	9.37018
843.706	5.21582
846.598	7.15253
849.491	9.31659
852.384	8.30402
855.276	7.74506
858.169	8.02122
861.062	8.06152
863.955	7.0874
866.847	7.51886
869.74	6.59302
872.633	9.90894
875.525	8.34149
878.418	11.2681
881.311	13.7386
884.203	11.9518
887.096	17.9841
889.989	18.1703
892.881	18.5316
895.774	17.4062
898.667	18.0561
901.56	21.2169
904.452	13.9888
907.345	17.1448
910.238	14.4418
913.13	15.2105
916.023	14.1547
918.916	12.2791
921.808	11.0413
924.701	9.10297
927.594	3.83484
930.487	5.09998
933.379	4.86993
936.272	4.2226
939.165	4.20282
942.057	1.00531
944.95	0.971313
947.843	2.27527
950.736	2.11536
953.628	3.1037
956.521	4.85272
959.414	6.2229
962.306	3.55481
965.199	3.09247
968.092	9.69946
970.984	5.12207
973.877	3.57935
976.77	3.96112
979.663	4.00848
982.555	3.71039
985.448	3.10834
988.341	5.5827
991.233	6.49347
994.126	4.21942
997.019	4.47321
999.911	7.45544
1002.8	1.87787
1005.7	3.48224
1008.59	5.37512
1011.48	8.03857
1014.38	8.53583
1017.27	5.15045
1020.16	5.16864
1023.05	1.16107
1025.95	1.21765
1028.84	0.165222
1031.73	2.8219
1034.62	0.502502
1037.52	2.66412
1040.41	1.59363
1043.3	0.927063
1046.19	1.89667
1049.09	0.797974
1051.98	2.63727
1054.87	0.103088
1057.77	4.97382
1060.66	1.06696
1063.55	2.51837
1066.44	1.92212
1069.34	5.16412
1072.23	6.71344
1075.12	11.8427
1078.01	10.42
1080.91	11.8486
1083.8	15.2736
1086.69	17.1154
1089.59	23.6575
1092.48	25.7909
1095.37	25.4346
1098.26	18.9568
1101.16	22.7558
1104.05	21.9268
1106.94	18.991
1109.83	18.5566
1112.73	10.8076
1115.62	12.6157
1118.51	6.87634
1121.4	7.64777
1124.3	15.6769
1127.19	9.45361
1130.08	8.57538
1132.98	11.0317
1135.87	16.6262
1138.76	13.0375
1141.65	18.0136
1144.55	18.5429
1147.44	19.5881
1150.33	23.9418
1153.22	23.3618
1156.12	19.5757
1159.01	27.6213
1161.9	26.2026
1164.8	24.9281
1167.69	23.106
1170.58	21.0206
1173.47	23.774
1176.37	18.723
1179.26	22.5225
1182.15	21.1498
1185.04	23.4557
1187.94	24.5236
1190.83	26.7507
1193.72	24.4751
1196.62	26.9401
1199.51	24.116
1202.4	31.7986
1205.29	26.3091
1208.19	33.5108
1211.08	38.3191
1213.97	32.7135
1216.86	37.0847
1219.76	39.5267
1222.65	39.2067
1225.54	37.3969
1228.43	39.0465
1231.33	38.7425
1234.22	33.8515
1237.11	26.9623
1240.01	23.4134
1242.9	15.3176
1245.79	12.7297
1248.68	8.3349
1251.58	3.22003
1254.47	2.0846
1257.36	0.359314
1260.26	2.30884
1263.15	0.705139
1266.04	1.76611
1268.93	3.00806
1271.83	3.96735
1274.72	5.25275
1277.61	2.59772
1280.5	5.77472
1283.4	1.42712
