Measurement: Raman, 532 nm, unoriented, Raman Data Processed
Mineral: Terrywallaceite
Rruff sample: R100007
Ideal chemistry: Ag^1+^Pb^2+^(Sb^3+^,Bi^3+^)_3_S^2-^_6_
Locality: Level 390, Vein 14, Mina Herminia, Julcani District, Huancavelica, Peru
Source: William Pinch
Description: Lath-shaped black crystals with striations parallel to the c-axis. Associated with barite, quartz, pyrite, gustavite, and tetrahedrite.
Measured chemistry: Ag_1.02_Pb_0.87_Sb_1.53_Bi_1.47_(S_5.94_As_0.06_)_Î£=6.00_
Raman shift (cm-1)	intensity
142.154	0
145.529	2.02086
148.904	7.99714
152.279	12.0762
155.654	12.313
159.028	15.1117
162.403	20.8851
165.778	21.7255
169.153	25.1937
172.528	26.9497
175.902	27.3219
179.277	30.1481
182.652	30.8549
186.027	30.02
189.402	31.6375
192.776	30.8825
196.151	32.0014
199.526	32.5958
202.901	30.7745
206.276	31.5177
209.651	29.2056
213.025	26.5115
216.4	27.929
219.775	24.137
223.15	22.2462
226.525	21.1658
229.899	19.3282
233.274	17.2492
236.649	15.6108
240.024	15.8385
243.399	13.32
246.774	11.7924
250.148	9.57743
253.523	7.82954
256.898	8.17093
260.273	7.10348
263.648	8.47915
267.022	6.14324
270.397	4.95651
273.772	4.19367
277.147	5.00439
280.522	2.90552
283.897	2.31973
287.271	2.93317
290.646	1.26016
294.021	0.665041
297.396	0.247139
300.771	0.258247
304.145	1.48348
307.52	0.979446
310.895	1.12977
314.27	0.760529
317.645	1.40536
321.019	0.510063
324.394	1.34412
327.769	0.692028
331.144	0.274544
334.519	0.908886
337.894	1.36643
341.268	0.995583
344.643	0.863731
348.018	2.47458
351.393	1.63907
354.768	2.67561
358.142	2.62601
361.517	2.92827
364.892	3.37488
368.267	3.90087
371.642	4.80829
375.017	5.5252
378.391	4.74771
381.766	3.47136
385.141	3.41084
388.516	2.61678
391.891	3.42858
395.265	3.40989
398.64	3.47055
402.015	2.58731
405.39	2.1372
408.765	3.09174
412.14	1.8482
415.514	2.8139
418.889	0.591042
422.264	2.52461
425.639	2.9797
429.014	3.43919
432.389	1.14921
435.763	1.3219
439.138	2.31246
442.513	1.50663
445.888	1.29233
449.262	1.38827
452.637	1.79747
456.012	2.51479
459.387	1.41323
462.762	2.26425
466.137	1.8579
469.511	0.987843
472.886	1.07536
476.261	1.56837
479.636	0.77523
483.011	1.3782
486.385	1.9923
489.76	1.45563
493.135	1.21386
496.51	1.18043
499.885	0.860394
503.26	0.993393
506.634	0.296856
510.009	0.279877
513.384	0.532864
516.759	0.547199
520.134	0.533882
523.509	1.09337
526.883	1.16636
530.258	1.74784
533.633	0.021458
537.008	2.56718
540.383	0.855049
543.757	1.60875
547.132	1.35962
550.507	1.48913
553.882	0.500732
557.257	0.233715
560.631	1.87418
564.006	0.637314
567.381	1.21755
570.756	1.42933
574.131	0.753384
577.506	0.366455
580.88	2.08397
584.255	0.587868
587.63	0.579124
591.005	0.991608
594.38	0.807945
597.755	2.0402
601.129	1.39908
604.504	0.081493
607.879	0.861488
611.254	0.948132
614.629	1.59566
618.003	0.577862
621.378	1.18876
624.753	0.443455
628.128	2.09171
631.503	2.19712
634.877	0.119869
638.252	1.32206
641.627	0.937817
645.002	1.06831
648.377	0.89357
651.751	0.729351
655.126	1.99205
658.501	1.10326
661.876	0.120937
665.251	1.48836
668.626	0.293026
672	0.244431
675.375	1.35797
678.75	0.542992
682.125	1.31469
685.5	0.641922
688.875	1.18313
692.249	1.18943
695.624	0.858692
698.999	1.01869
702.374	0.633579
705.749	0.154282
709.123	1.31006
712.498	0.878139
715.873	1.18629
719.248	1.14642
722.623	1.5763
725.997	1.98054
729.372	1.3899
732.747	2.21239
736.122	1.12421
739.497	0.379139
742.872	0.879124
746.246	1.73502
749.621	1.54863
752.996	1.33445
756.371	1.71464
759.746	1.82873
763.12	1.29754
766.495	1.12148
769.87	1.95773
773.245	0.604305
776.62	1.56548
779.995	1.61026
783.369	1.62126
786.744	2.03285
790.119	0.853111
793.494	1.42082
796.869	0.213051
800.244	1.12699
803.618	1.67369
806.993	1.66846
810.368	0.444942
813.743	0.968262
817.118	1.08246
820.492	1.0265
823.867	0.477928
827.242	1.96386
830.617	2.198
833.992	1.14068
837.366	0.7826
840.741	1.03309
844.116	0.698372
847.491	0.812481
850.866	0.640175
854.24	1.91892
857.615	1.1923
860.99	1.34925
864.365	1.61415
867.74	0.737171
871.115	1.20007
874.489	1.23203
877.864	0.29406
881.239	0.487904
884.614	1.41107
887.989	1.07347
891.364	0.248928
894.738	1.00547
898.113	0.56456
901.488	1.69994
904.863	0.360592
908.238	1.2701
911.612	0.638123
914.987	0.395725
918.362	0.102043
921.737	0.570526
925.112	0.759842
928.486	1.09494
931.861	1.78482
935.236	0.420063
938.611	0.879944
941.986	0.530685
945.361	1.02308
948.735	0.943329
952.11	0.783314
955.485	1.44107
958.86	1.73609
962.235	1.49891
965.61	1.94196
968.984	0.439938
972.359	1.03872
975.734	0.889725
979.109	1.12769
982.484	1.50511
985.858	0.482021
989.233	1.05299
992.608	0.708736
995.983	0.599468
999.358	0.860294
1002.73	0.923775
1006.11	0.720642
1009.48	1.44596
1012.86	1.18633
1016.23	0.570988
1019.61	0.804668
1022.98	0.493458
1026.36	0.451927
1029.73	1.18033
1033.11	1.18486
1036.48	0.651756
1039.86	0.981678
1043.23	1.06427
1046.61	0.337536
1049.98	0.316795
1053.36	0.250487
1056.73	0.644005
1060.1	0.259541
1063.48	0.440166
1066.85	1.51743
1070.23	1.35413
1073.6	1.73485
1076.98	0.831699
1080.35	2.00201
1083.73	1.64036
1087.1	0.077694
1090.48	0.296097
1093.85	1.56221
1097.23	0.323502
1100.6	1.37788
1103.98	0.172314
1107.35	0.937572
1110.73	0.896873
1114.1	0.402367
1117.48	1.24286
1120.85	1.37667
1124.23	0.163601
1127.6	1.14759
1130.97	0.25098
1134.35	0.425007
1137.72	1.95195
1141.1	0.310688
1144.47	2.69296
1147.85	0.63876
1151.22	2.11168
1154.6	1.0549
1157.97	1.55812
1161.35	1.44025
1164.72	1.4229
1168.1	0.89296
1171.47	0.106785
1174.85	0.783554
1178.22	1.7141
1181.6	3.0495
1184.97	0.417484
1188.35	1.75188
1191.72	2.02489
1195.1	0.812283
1198.47	0.296505
1201.85	0.849102
1205.22	0.714478
1208.6	2.03824
1211.97	0.06369
1215.35	1.54031
1218.72	1.36076
1222.1	0.320381
1225.47	2.02991
1228.85	1.75629
1232.22	0.612663
1235.6	0.665115
1238.97	0.807983
1242.34	2.0687
1245.72	1.52892
1249.09	1.60966
1252.47	1.83058
1255.84	0.73243
1259.22	2.14168
1262.59	0.354813
1265.97	0.969734
1269.34	1.41706
1272.72	1.15725
1276.09	1.70825
1279.47	0.860596
1282.84	0.856903
1286.22	2.04724
1289.59	0.009903
1292.97	2.39516
1296.34	0.334435
1299.72	0.30233
