Measurement: Raman, 780 nm, unoriented, Raman Data Processed
Mineral: Tetrahedrite-(Zn)
Rruff sample: R040164
Ideal chemistry: Cu^1+^_6_(Cu^1+^_4_Zn^2+^_2_)Sb^3+^_4_S^2-^_13_
Locality: Sunshine mine, Kellog, Idaho, USA
Source: University of Arizona Mineral Museum
Description: A fragment of massive ore
Measured chemistry: (Cu_0.75_Fe_0.11_Ag_0.08_Zn_0.05_)_12_(Sb_0.97_As_0.06_)_4_S_13_
Raman shift (cm-1)	intensity
121.45	0
124.825	0.704692
128.2	1.07417
131.575	1.1631
134.95	0.654889
138.325	1.49131
141.699	0.522577
145.074	0.964366
148.449	0.37447
151.824	1.05788
155.199	1.23801
158.573	0.755453
161.948	1.03186
165.323	0.665101
168.698	0.663056
172.073	0.472111
175.447	0.247092
178.822	0.571575
182.197	0.65709
185.572	0.274785
188.947	0.561514
192.322	0.270459
195.696	0.377327
199.071	0.148821
202.446	0.561278
205.821	0.462233
209.196	0.611511
212.571	0.25809
215.945	0.764876
219.32	0.048738
222.695	0.226465
226.07	0.36846
229.445	0.2427
232.819	0.405833
236.194	0.273232
239.569	0.005274
242.944	0.181103
246.319	0.158022
249.694	0.48516
253.068	0.18277
256.443	0.130475
259.818	0.893554
263.193	1.12143
266.567	0.61078
269.942	0.710156
273.317	0.802555
276.692	1.90312
280.067	1.60768
283.442	1.56584
286.816	2.73288
290.191	2.62418
293.566	1.66254
296.941	2.02269
300.316	2.41437
303.69	2.54867
307.065	1.90072
310.44	1.73503
313.815	2.43452
317.19	2.42947
320.565	2.80445
323.939	2.78909
327.314	3.90899
330.689	3.07474
334.064	4.56042
337.439	5.85148
340.813	7.41992
344.188	8.12156
347.563	8.22635
350.938	9.27517
354.313	8.25473
357.688	7.69156
361.062	5.97257
364.437	4.27821
367.812	2.12545
371.187	1.57464
374.562	0.439616
377.937	0.462269
381.311	0.396886
384.686	0.141744
388.061	0.20252
391.436	0.036925
394.81	0.024656
398.185	0.484815
401.56	0.33856
404.935	0.0886
408.31	0.508655
411.685	0.446782
415.059	0.825207
418.434	0.718964
421.809	0.528864
425.184	0.925065
428.559	0.336633
431.933	0.391454
435.308	0.344355
438.683	0.586985
442.058	0.842734
445.433	0.488526
448.808	0.938746
452.182	0.453385
455.557	0.587306
458.932	0.747436
462.307	0.060172
465.682	0.064137
469.057	0.60377
472.431	0.441346
475.806	0.735641
479.181	0.519902
482.556	0.672573
485.931	0.48108
489.305	0.002337
492.68	0.410184
496.055	0.949006
499.43	0.179899
502.805	0.168636
506.18	0.083294
509.554	0.442585
512.929	0.612055
516.304	0.313568
519.679	0.627517
523.054	0.234843
526.428	0.765576
529.803	0.453685
533.178	0.699068
536.553	0.225708
539.928	0.184353
543.303	0.089357
546.677	0.280021
550.052	0.493671
553.427	0.154372
556.802	0.42886
560.177	0.281859
563.551	0.519448
566.926	0.668661
570.301	0.053258
573.676	0.139342
577.051	0.308724
580.425	0.585686
583.8	0.456956
587.175	0.328806
590.55	0.533013
593.925	0.681102
597.299	0.335796
600.674	0.621605
604.049	0.239174
607.424	0.564594
610.799	0.349969
614.174	0.290684
617.548	0.108673
620.923	0.343972
624.298	0.146902
627.673	0.915748
631.048	0.286904
634.423	0.643149
637.797	0.565491
641.172	0.2913
644.547	0.729941
647.922	0.166317
651.297	0.713632
654.671	0.76288
658.046	0.540432
661.421	0.567486
664.796	0.238308
668.171	0.102986
671.545	0.665415
674.92	0.703583
678.295	0.324196
681.67	0.269443
685.045	1.03756
688.42	0.358614
691.794	0.010767
695.169	0.60486
698.544	0.546057
701.919	0.436439
705.294	0.039486
708.668	0.613746
712.043	0.25274
715.418	0.499208
718.793	0.956256
722.168	0.685486
725.543	0.50939
728.917	0.603043
732.292	0.193973
735.667	0.707652
739.042	0.558253
742.417	0.463417
745.791	0.72817
749.166	0.460238
752.541	0.200949
755.916	0.813193
759.291	0.245307
762.665	0.332287
766.04	0.518459
769.415	0.532892
772.79	0.129579
776.165	0.289076
779.54	0.854185
782.914	0.492
786.289	0.485357
789.664	0.374138
793.039	0.015438
796.414	0.021787
799.788	0.433922
803.163	0.986148
806.538	0.730307
809.913	0.735059
813.288	0.299249
816.663	0.524684
820.037	0.188182
823.412	0.625476
826.787	0.07604
830.162	0.399121
833.537	0.640157
836.912	0.224522
840.286	0.561894
843.661	0.326718
847.036	0.431096
850.411	1.07118
853.786	0.561383
857.16	0.791022
860.535	0.408155
863.91	0.052534
867.285	0.320027
870.66	0.454219
874.034	0.546654
877.409	0.056785
880.784	0.597173
884.159	0.424159
887.534	0.77621
890.909	0.36322
894.283	0.293855
897.658	0.880532
901.033	0.011175
904.408	0.452612
907.783	0.716345
911.157	0.040287
914.532	0.509037
917.907	0.282447
921.282	0.493665
924.657	0.20844
928.032	0.285269
931.406	0.803
934.781	0.177209
938.156	0.396217
941.531	0.134614
944.906	0.453825
948.28	0.807956
951.655	0.233536
955.03	0.325122
958.405	0.83769
961.78	0.04374
965.154	0.050889
968.529	0.648898
971.904	0.016525
975.279	0.040257
978.654	0.036244
982.029	0.631369
985.403	0.853769
988.778	0.003664
992.153	0.351958
995.528	0.714073
998.903	0.2057
1002.28	0.413498
1005.65	0.500296
1009.03	0.929503
1012.4	0.421742
1015.78	0.729583
1019.15	0.405158
1022.53	0.787387
1025.9	0.181726
1029.28	0.214829
1032.65	0.023605
1036.03	0.886275
1039.4	0.333989
1042.78	0.195933
1046.15	0.011294
1049.53	0.411717
1052.9	0.593041
1056.28	0.511586
1059.65	0.490538
1063.02	0.727058
1066.4	0.221382
1069.77	0.345204
1073.15	0.348066
1076.52	0.013063
1079.9	0.379102
1083.27	0.328151
1086.65	0.548925
1090.02	0.511162
1093.4	0.368637
1096.77	0.630825
1100.15	0.770997
1103.52	0.311204
1106.9	0.438807
1110.27	0.493701
1113.65	0.420619
1117.02	0.494538
1120.4	0.25662
1123.77	0.570167
1127.15	0.367055
1130.52	0.242116
1133.89	0.189422
1137.27	0.454389
1140.64	0.782017
1144.02	0.268579
1147.39	0.081702
1150.77	0.541754
1154.14	0.005946
1157.52	0.230804
1160.89	0.102356
1164.27	0.420147
1167.64	0.152652
1171.02	0.504103
1174.39	0.894705
1177.77	0.45874
1181.14	0.511181
1184.52	0.411975
1187.89	0.522499
1191.27	1.30124
1194.64	0.6443
1198.02	0.716907
1201.39	0.558578
1204.77	0.143818
1208.14	0.538046
1211.52	0.038307
1214.89	0.127394
1218.27	0.004394
1221.64	0.703248
1225.02	0.065033
1228.39	0.612133
1231.77	0.544569
1235.14	0.179618
1238.52	0.34146
1241.89	0.053121
1245.26	0.660545
1248.64	0.347251
1252.01	0.848106
1255.39	0.512055
1258.76	0.556036
1262.14	0.663246
1265.51	0.013394
1268.89	0.519844
1272.26	0.463999
1275.64	0.594098
1279.01	0.359998
1282.39	0.579443
1285.76	0.779364
