Measurement: Raman, 532 nm, unoriented, Raman Data Processed
Mineral: Tetrahedrite-(Zn)
Rruff sample: R050302
Ideal chemistry: Cu^1+^_6_(Cu^1+^_4_Zn^2+^_2_)Sb^3+^_4_S^2-^_13_
Locality: Casapalca, Peru
Source: Eugene Schlepp
Description: Black tetrahedra associated with quartz and pyrite
Measured chemistry: (Cu_10.02_Zn_1.76_Fe_0.22_)_Σ=12_(Sb_2.42_As_1.58_)_Σ=4_S_13.00_
Raman shift (cm-1)	intensity
136.226	0
139.601	1.36368
142.976	0.724798
146.351	1.04883
149.725	1.14237
153.1	1.60058
156.475	0.74951
159.85	2.05513
163.225	1.06092
166.6	1.29269
169.974	1.42155
173.349	0.954393
176.724	2.18972
180.099	1.26595
183.474	2.41467
186.848	1.41922
190.223	0.832298
193.598	0.205101
196.973	0.135038
200.348	0.373352
203.722	1.00039
207.097	0.025084
210.472	0.200018
213.847	0.473511
217.222	0.077616
220.596	0.870735
223.971	0.083517
227.346	0.17337
230.721	0.652365
234.096	0.112989
237.471	0.548388
240.845	0.365181
244.22	0.896349
247.595	1.28019
250.97	1.42998
254.345	0.190048
257.719	0.629034
261.094	2.6534
264.469	0.064594
267.844	1.88298
271.219	1.12715
274.594	2.03006
277.968	2.70727
281.343	3.04953
284.718	2.77209
288.093	4.9387
291.468	4.74749
294.842	7.47051
298.217	7.3381
301.592	7.15613
304.967	6.94432
308.342	7.3658
311.717	7.71355
315.091	10.5205
318.466	9.16174
321.841	11.7666
325.216	13.2259
328.591	12.8432
331.966	14.3612
335.34	12.5479
338.715	14.5157
342.09	16.8189
345.465	18.7385
348.84	22.2213
352.214	22.8348
355.589	20.9592
358.964	19.4598
362.339	17.8322
365.714	14.714
369.089	12.1764
372.463	11.6678
375.838	8.98727
379.213	7.03764
382.588	3.65824
385.963	1.23733
389.337	1.55919
392.712	0.58392
396.087	0.16946
399.462	1.0222
402.837	0.004753
406.212	0.112892
409.586	0.452583
412.961	0.48197
416.336	0.20235
419.711	0.553826
423.086	1.4344
426.46	0.94085
429.835	0.014881
433.21	0.628044
436.585	0.179876
439.96	0.812226
443.334	0.276565
446.709	1.53226
450.084	1.38273
453.459	0.50075
456.834	1.34456
460.209	0.671002
463.583	1.34729
466.958	0.4983
470.333	0.232902
473.708	0.837325
477.083	1.25274
480.457	0.859834
483.832	1.59824
487.207	1.99594
490.582	1.83288
493.957	1.2192
497.332	0.95187
500.706	1.23911
504.081	1.40848
507.456	1.62224
510.831	1.29192
514.206	1.71043
517.58	1.12572
520.955	1.03105
524.33	1.33979
527.705	0.768245
531.08	1.12681
534.455	0.829288
537.829	0.807328
541.204	1.13708
544.579	0.600937
547.954	1.02894
551.329	0.645288
554.703	0.428921
558.078	1.70926
561.453	0.702889
564.828	0.275305
568.203	0.411894
571.577	0.514061
574.952	0.819322
578.327	0.281985
581.702	0.049545
585.077	0.514932
588.452	0.83711
591.826	1.08344
595.201	0.360487
598.576	0.539761
601.951	0.259812
605.326	0.762131
608.7	0.46169
612.075	0.062788
615.45	0.311666
618.825	1.10221
622.2	1.06161
625.574	0.838464
628.949	1.08102
632.324	0.969373
635.699	0.553282
639.074	0.3862
642.449	1.38072
645.823	0.821967
649.198	0.233568
652.573	0.924259
655.948	1.02461
659.323	0.642669
662.697	1.20186
666.072	0.59779
669.447	0.352534
672.822	1.49202
676.197	0.378076
679.572	0.080001
682.946	0.415897
686.321	0.679665
689.696	0.825909
693.071	0.147064
696.446	1.2582
699.821	1.38353
703.195	0.770827
706.57	1.28119
709.945	1.04582
713.32	1.14647
716.695	1.05439
720.069	1.45877
723.444	1.20064
726.819	0.259962
730.194	0.817695
733.569	0.248989
736.943	0.128304
740.318	0.587524
743.693	0.63173
747.068	0.717728
750.443	0.778881
753.818	0.579372
757.192	0.641231
760.567	1.25515
763.942	0.515957
767.317	0.866258
770.692	0.849241
774.067	0.398896
777.441	0.881222
780.816	0.955468
784.191	0.070611
787.566	0.945591
790.941	1.1882
794.315	0.108923
797.69	1.89716
801.065	1.29784
804.44	0.641886
807.815	0.102181
811.189	0.400103
814.564	0.121382
817.939	0.778942
821.314	0.93645
824.689	0.663418
828.063	0.914691
831.438	0.806907
834.813	0.473763
838.188	1.11676
841.563	1.15622
844.938	0.970004
848.312	0.806404
851.687	0.164557
855.062	1.36435
858.437	0.895163
861.812	0.276204
865.187	0.950259
868.561	0.614199
871.936	0.245779
875.311	0.336367
878.686	0.53272
882.061	1.02311
885.435	0.426426
888.81	0.941861
892.185	0.341381
895.56	1.33123
898.935	0.271356
902.309	0.911209
905.684	0.441939
909.059	0.90848
912.434	0.876456
915.809	0.207691
919.184	0.658619
922.558	1.35598
925.933	0.552634
929.308	0.342138
932.683	0.482509
936.058	0.397468
939.433	0.323443
942.807	0.923319
946.182	0.073678
949.557	1.06423
952.932	0.641163
956.307	1.69285
959.681	0.098403
963.056	0.465431
966.431	1.50317
969.806	0.717835
973.181	0.457158
976.556	0.792445
979.93	0.597373
983.305	0.268197
986.68	1.23006
990.055	0.13828
993.43	0.977719
996.804	0.89214
1000.18	0.162557
1003.55	0.963484
1006.93	0.550365
1010.3	1.34297
1013.68	0.857406
1017.05	1.25437
1020.43	0.920012
1023.8	0.491127
1027.18	0.469306
1030.55	1.10857
1033.93	1.80013
1037.3	1.0092
1040.68	0.805992
1044.05	0.854068
1047.43	1.31194
1050.8	0.305397
1054.18	0.801908
1057.55	0.978302
1060.93	0.966041
1064.3	0.109716
1067.68	1.3467
1071.05	0.57129
1074.42	0.665839
1077.8	1.24381
1081.17	0.901332
1084.55	1.4701
1087.92	0.002373
1091.3	0.818078
1094.67	0.308503
1098.05	0.273625
1101.42	1.34616
1104.8	0.549819
1108.17	1.00621
1111.55	0.949881
1114.92	0.77103
1118.3	1.24561
1121.67	0.617623
1125.05	1.18005
1128.42	0.86146
1131.8	0.233939
1135.17	0.080672
1138.55	0.722102
1141.92	0.50211
1145.3	0.947968
1148.67	0.322377
1152.05	1.24345
1155.42	1.27894
1158.8	1.33037
1162.17	0.863277
1165.55	0.932302
1168.92	0.644106
1172.3	1.26802
1175.67	0.734464
1179.04	1.33539
1182.42	0.404344
1185.79	1.00083
1189.17	1.00528
1192.54	1.69914
1195.92	0.619693
1199.29	0.832393
1202.67	0.313776
1206.04	0.86416
1209.42	0.475723
1212.79	1.65754
1216.17	0.220582
1219.54	1.09681
1222.92	1.04138
1226.29	1.34229
1229.67	0.718466
1233.04	0.57382
1236.42	0.91014
1239.79	1.13056
1243.17	0.396648
1246.54	1.98577
1249.92	0.633119
1253.29	1.61711
1256.66	0.928034
1260.04	0.115695
1263.41	0.931261
1266.79	0.534183
1270.16	1.0202
1273.54	1.19556
1276.91	1.09097
1280.29	0.687904
1283.66	1.93541
1287.04	0.624172
1290.41	0.814559
1293.79	0.997134
1297.16	1.81147
1300.54	0.620276
1303.91	0.460368
