Measurement: Raman, 532 nm, unoriented, Raman Data Processed
Mineral: Tetrahedrite-(Zn)
Rruff sample: R070423
Ideal chemistry: Cu^1+^_6_(Cu^1+^_4_Zn^2+^_2_)Sb^3+^_4_S^2-^_13_
Locality: Tunnel Extension mine, Marysvale District (Marysvale Uranium area), Piute County, Utah, USA
Source: Michael Scott
Description: Lead-gray massive in a polished slab, associated with pyrite and quartz
Measured chemistry: gray: (Cu_10.26_Zn_1.66_Fe_0.08_)_Σ=12_(Sb_2.63_Te_0.27_As_0.10_)_Σ=4_(S_12.84_As_1.16_)_Σ=13_; lighter: (Cu_10.05_Zn_1.90_Fe_0.05_)_Σ=12_(Sb_3.72_As_0.24_Te_0.04_)_Σ=4_(S_12.90_As_0.10_)_Σ=13_
Raman shift (cm-1)	intensity
163.904	0
166.797	21.4972
169.69	11.679
172.582	23.4939
175.475	3.41797
178.368	22.2263
181.26	24.251
184.153	22.3693
187.046	37.9908
189.939	12.8769
192.831	31.2266
195.724	23.8506
198.617	29.9266
201.509	38.0801
204.402	15.8226
207.295	18.3701
210.187	4.98779
213.08	0.769531
215.973	0.599274
218.865	8.54544
221.758	3.59506
224.651	1.24356
227.544	4.16208
230.436	9.4483
233.329	2.6817
236.222	3.90888
239.114	2.20877
242.007	3.42294
244.9	12.4076
247.792	19.9579
250.685	15.0501
253.578	23.9882
256.471	33.5359
259.363	18.6036
262.256	1.72806
265.149	41.0026
268.041	1.98563
270.934	18.8895
273.827	32.0743
276.719	64.3375
279.612	35.9759
282.505	54.4868
285.398	60.1895
288.29	65.0084
291.183	122.25
294.076	121.011
296.969	145.904
299.861	152.648
302.754	151.979
305.647	152.118
308.539	162.077
311.432	201.298
314.325	230.232
317.217	260.482
320.11	310.312
323.003	320.685
325.896	352.651
328.788	372.326
331.681	409.798
334.574	404.506
337.466	438.42
340.359	448.669
343.252	476.816
346.144	466.727
349.037	511.868
351.93	576.058
354.822	624.477
357.715	577.178
360.608	562.989
363.501	506.058
366.393	411.583
369.286	354.727
372.179	288.146
375.071	246.511
377.964	183.1
380.857	163.739
383.75	104.736
386.642	58.2126
389.535	27.6879
392.428	21.0875
395.32	4.16907
398.213	3.35004
401.106	8.80634
403.998	9.91287
406.891	11.1994
409.784	7.71426
412.676	4.63705
415.569	2.34552
418.462	5.9635
421.355	4.43365
424.247	13.5248
427.14	4.2561
430.033	4.5885
432.925	2.27145
435.818	14.3428
438.711	21.8941
441.603	5.5809
444.496	10.0665
447.389	19.7947
450.282	20.0117
453.174	11.5247
456.067	20.2772
458.96	35.8289
461.852	41.0482
464.745	26.3976
467.638	45.8539
470.531	46.596
473.423	38.0259
476.316	26.4876
479.209	22.6729
482.101	20.5801
484.994	21.4771
487.887	18.0884
490.779	2.33685
493.672	12.653
496.565	23.2723
499.458	19.2728
502.35	19.1086
505.243	6.72211
508.136	16.5067
511.028	4.1474
513.921	24.6313
516.814	1.76737
519.707	22.1436
522.599	20.935
525.492	14.9326
528.385	26.007
531.277	3.88855
534.17	11.4052
537.063	7.87799
539.955	20.203
542.848	0.714203
545.741	20.1338
548.634	12.115
551.526	37.8303
554.419	16.5433
557.312	14.4131
560.204	30.1585
563.097	15.3327
565.99	19.5085
568.882	19.7236
571.775	14.2748
574.668	14.2583
577.561	14.0882
580.453	17.7286
583.346	13.3826
586.239	3.13492
589.131	11.9786
592.024	1.03516
594.917	17.6849
597.809	2.94034
600.702	8.16672
603.595	15.0527
606.487	8.11749
609.38	16.6705
612.273	25.0044
615.166	5.22516
618.058	15.7938
620.951	31.7931
623.844	14.3095
626.736	16.3127
629.629	15.9084
632.522	17.014
635.415	40.8708
638.307	28.4471
641.2	20.9317
644.093	20.5442
646.985	26.9202
649.878	21.5392
652.771	1.71512
655.663	26.2148
658.556	29.2875
661.449	27.7236
664.342	11.3561
667.234	30.1363
670.127	25.149
673.02	23.6908
675.912	36.7838
678.805	23.2082
681.698	17.2895
684.591	23.6228
687.483	15.0335
690.376	18.2566
693.269	28.605
696.161	15.6486
699.054	37.5993
701.947	36.8867
704.839	9.80154
707.732	17.7433
710.625	15.1493
713.518	9.3884
716.41	14.1233
719.303	21.2204
722.196	4.52011
725.088	15.8371
727.981	14.3225
730.874	7.87872
733.766	15.0555
736.659	10.1226
739.552	18.6504
742.444	9.68509
745.337	10.3572
748.23	7.89252
751.123	7.13635
754.015	4.52939
756.908	12.9645
759.801	19.1895
762.693	9.89859
765.586	16.9985
768.479	12.8619
771.371	7.83115
774.264	12.3238
777.157	17.8852
780.05	2.12741
782.942	21.1029
785.835	8.79364
788.728	6.73215
791.62	16.9525
794.513	20.856
797.406	17.4469
800.298	19.4945
803.191	9.56769
806.084	21.863
808.977	10.2725
811.869	12.0863
814.762	5.25981
817.655	1.59497
820.547	10.2617
823.44	7.47821
826.333	26.0302
829.226	11.9628
832.118	20.4459
835.011	3.1727
837.904	22.293
840.796	10.3249
843.689	5.271
846.582	2.89171
849.474	6.53146
852.367	11.7898
855.26	12.7482
858.153	10.9542
861.045	20.2653
863.938	19.2213
866.831	25.463
869.723	0.141159
872.616	11.9474
875.509	10.5112
878.401	7.65323
881.294	19.7971
884.187	3.80652
887.08	25.514
889.972	24.2228
892.865	12.8036
895.758	23.0156
898.65	20.6513
901.543	10.2666
904.436	11.9741
907.328	19.8344
910.221	19.6845
913.114	10.7446
916.007	18.3984
918.899	22.7803
921.792	22.5544
924.685	2.77579
927.577	11.1768
930.47	11.0823
933.363	20.9878
936.255	13.8845
939.148	18.4144
942.041	18.0498
944.934	15.3101
947.826	15.7866
950.719	23.7205
953.612	25.4582
956.504	5.53716
959.397	14.3672
962.29	11.2271
965.183	21.1131
968.075	22.9507
970.968	7.21663
973.861	16.8149
976.753	23.5996
979.646	12.9463
982.539	23.8875
985.431	2.47208
988.324	10.3209
991.217	6.17462
994.11	15.9664
997.002	6.05743
999.895	26.0116
1002.79	20.796
1005.68	22.0154
1008.57	12.4978
1011.47	17.7124
1014.36	3.61169
1017.25	9.09639
1020.14	5.89647
1023.04	7.92886
1025.93	1.45079
1028.82	15.8535
1031.71	30.4722
1034.61	12.0579
1037.5	15.8086
1040.39	11.0511
1043.29	13.3036
1046.18	12.6021
1049.07	1.32402
1051.96	0.52713
1054.86	1.64709
1057.75	19.9412
1060.64	9.78577
1063.53	10.6364
1066.43	26.1294
1069.32	8.3119
1072.21	16.8934
1075.11	20.956
1078	12.2911
1080.89	6.59589
1083.78	17.6796
1086.68	15.4608
1089.57	5.74422
1092.46	3.88777
1095.35	1.40411
1098.25	10.7463
1101.14	2.63393
1104.03	8.1311
1106.92	21.9711
1109.82	10.5633
1112.71	24.3065
1115.6	10.7318
1118.5	17.5071
1121.39	8.22398
1124.28	23.6376
1127.17	1.7807
1130.07	24.7493
1132.96	5.5342
1135.85	14.1907
1138.74	14.3014
1141.64	0.841995
1144.53	20.8885
1147.42	7.35014
1150.32	15.7616
1153.21	9.6788
1156.1	2.03494
1158.99	22.6525
1161.89	2.56363
1164.78	8.3566
1167.67	17.9754
1170.56	22.1456
1173.46	22.0974
1176.35	21.881
1179.24	13.048
1182.13	13.8604
1185.03	27.8365
1187.92	14.6043
1190.81	15.6586
1193.71	25.3549
1196.6	12.8594
1199.49	31.7041
1202.38	0.148849
1205.28	13.4024
1208.17	20.5818
1211.06	16.0901
1213.95	14.3801
1216.85	23.3457
1219.74	21.1165
1222.63	21.8991
1225.53	22.2847
1228.42	15.9562
1231.31	26.3016
1234.2	4.20873
1237.1	25.2435
1239.99	21.7975
1242.88	16.1693
1245.78	10.9591
1248.67	20.2947
1251.56	16.7609
1254.45	9.23569
1257.35	12.7325
1260.24	12.8206
1263.13	14.7834
1266.02	10.43
1268.92	23.1397
1271.81	27.8856
1274.7	3.82729
1277.59	18.8418
1280.49	8.43684
1283.38	16.8386
1286.27	4.59106
1289.16	2.83307
1292.06	1.54692
1294.95	22.8064
1297.84	5.00539
1300.74	0.858459
1303.63	8.8665
1306.52	4.65671
