Measurement: Raman, 785 nm, unoriented, Raman Data Processed
Mineral: Tetrahedrite-(Zn)
Rruff sample: R070423
Ideal chemistry: Cu^1+^_6_(Cu^1+^_4_Zn^2+^_2_)Sb^3+^_4_S^2-^_13_
Locality: Tunnel Extension mine, Marysvale District (Marysvale Uranium area), Piute County, Utah, USA
Source: Michael Scott
Description: Lead-gray massive in a polished slab, associated with pyrite and quartz
Measured chemistry: gray: (Cu_10.26_Zn_1.66_Fe_0.08_)_Σ=12_(Sb_2.63_Te_0.27_As_0.10_)_Σ=4_(S_12.84_As_1.16_)_Σ=13_; lighter: (Cu_10.05_Zn_1.90_Fe_0.05_)_Σ=12_(Sb_3.72_As_0.24_Te_0.04_)_Σ=4_(S_12.90_As_0.10_)_Σ=13_
Raman shift (cm-1)	intensity
205.4	0
208.292	42.9883
211.185	71.1206
214.078	17.8306
216.97	20.8667
219.863	105.245
222.756	46.8218
225.649	15.9019
228.541	8.70898
231.434	11.8335
234.327	1.84619
237.219	49.6421
240.112	29.4341
243.005	11.7627
245.897	25.4121
248.79	44.147
251.683	59.4331
254.576	37.7339
257.468	71.4819
260.361	124.122
263.254	130.782
266.146	95.2798
269.039	88.418
271.932	133.474
274.824	153.18
277.717	169.996
280.61	262.77
283.502	260.424
286.395	218.24
289.288	275.383
292.181	341.321
295.073	390.927
297.966	437.1
300.859	452.904
303.751	535.911
306.644	571.974
309.537	718.803
312.43	788.335
315.322	930.004
318.215	1025.13
321.108	1134.6
324	1374.99
326.893	1511.16
329.786	1706.29
332.678	1822.07
335.571	1915.79
338.464	2007.87
341.356	1915.87
344.249	1928.87
347.142	2002.64
350.035	1973.47
352.927	1938.79
355.82	1865.58
358.713	1648.05
361.605	1484.63
364.498	1242.71
367.391	1064.13
370.284	814.538
373.176	689.562
376.069	539.657
378.962	382.359
381.854	207.72
384.747	95.7109
387.64	23.5259
390.532	5.08057
393.425	19.2173
396.318	18.7114
399.211	16.0405
402.103	53.0259
404.996	26.1768
407.889	1.48047
410.781	40.0361
413.674	6.57178
416.567	10.5903
419.459	8.82227
422.352	49.8892
425.245	45.7373
428.137	31.0581
431.03	72.8257
433.923	59.1431
436.816	105.798
439.708	42.3164
442.601	59.2388
445.494	100.169
448.386	79.7173
451.279	59.2612
454.172	94.7373
457.065	46.7114
459.957	78.8408
462.85	129.606
465.743	85.0361
468.635	105.727
471.528	87.0942
474.421	71.9409
477.313	52.5786
480.206	60.4634
483.099	43.293
485.991	32.6519
488.884	56.9268
491.777	54.9414
494.67	58.4487
497.562	74.3227
500.455	41.439
503.348	135.405
506.24	88.6084
509.133	56.8442
512.026	64.1856
514.918	80.396
517.811	87.3608
520.704	6.8584
523.597	80.4868
526.489	34.8589
529.382	12.3325
532.275	66.9482
535.167	55.6621
538.06	43.0278
540.953	81.5361
543.846	22.8047
546.738	14.1724
549.631	43.5889
552.524	10.3745
555.416	65.1406
558.309	0.117188
561.202	23.312
564.094	70.2378
566.987	44.8687
569.88	13.231
572.773	12.0093
575.665	71.5186
578.558	41.5981
581.451	40.3291
584.343	101.634
587.236	42.0957
590.129	19.1113
593.021	36.2266
595.914	46.293
598.807	4.12402
601.699	59.0772
604.592	49.5122
607.485	34.7412
610.378	13.3184
613.27	7.26807
616.163	37.4072
619.056	58.1572
621.948	45.5698
624.841	52.1016
627.734	47.8227
630.626	17.9697
633.519	21.0996
636.412	37.2588
639.305	48.6816
642.197	30.1167
645.09	11.166
647.983	13.6343
650.875	8.92188
653.768	16.5664
656.661	70.3193
659.553	48.8872
662.446	26.6138
665.339	43.1323
668.232	40.7134
671.124	75.3613
674.017	110.436
676.91	54.2168
679.802	80.6982
682.695	58.6743
685.588	84.8047
688.481	73.1338
691.373	78.522
694.266	63.227
697.159	85.1558
700.051	77.1646
702.944	55.1196
705.837	88.9668
708.729	47.9487
711.622	67.0303
714.515	34.666
717.408	81.2046
720.3	57.2315
723.193	87.0093
726.086	16.7471
728.978	12.3667
731.871	38.7563
734.764	81.8408
737.656	38.6343
740.549	38.1997
743.442	72.9937
746.335	16.0161
749.227	38.2783
752.12	38.8687
755.013	46.5088
757.905	39.8584
760.798	15.9253
763.691	29.9609
766.583	49.2202
769.476	9.99268
772.369	100.078
775.261	14.0742
778.154	46.0986
781.047	40.4912
783.94	1.90478
786.832	17.0303
789.725	62.6123
792.618	25.4907
795.51	75.9019
798.403	36.7388
801.296	30.062
804.188	33.1201
807.081	26.1245
809.974	27.6055
812.867	78.022
815.759	64.4575
818.652	1.5542
821.545	33.5078
824.437	82.2905
827.33	41.4126
830.223	72.8433
833.115	30.709
836.008	52.9297
838.901	29.9531
841.794	35.0855
844.686	42.7153
847.579	42.7471
850.472	106.041
853.364	32.6728
856.257	48.6982
859.15	38.291
862.043	27.4922
864.935	66.1816
867.828	83.9399
870.721	76.0386
873.613	63.8565
876.506	41.8184
879.399	17.3345
882.291	30.9106
885.184	44.8315
888.077	1.70361
890.97	63.6499
893.862	27.4346
896.755	54.1377
899.648	57.6812
902.54	62.9502
905.433	66.311
908.326	12.5688
911.218	9.26074
914.111	33.7549
917.004	68.6948
919.896	99.1709
922.789	40.169
925.682	33.9224
928.575	54.1733
931.467	40.6738
934.36	73.6587
937.253	83.9463
940.145	21.3252
943.038	28.3052
945.931	62.6855
948.823	20.5874
951.716	42.8237
954.609	84.541
957.502	81.8286
960.394	30.1387
963.287	45.7993
966.18	118.168
969.072	62.0488
971.965	53.8403
974.858	64.1792
977.75	60.8687
980.643	72.7251
983.536	58.8213
986.429	76.5386
989.321	76.2134
992.214	38.7036
995.107	43.2217
997.999	54.5234
1000.89	75.1016
1003.78	27.3438
1006.68	108.126
1009.57	28.981
1012.46	99.0347
1015.36	0.691406
1018.25	66.2456
1021.14	12.0864
1024.03	3.8667
1026.93	73.4541
1029.82	21.3965
1032.71	62.7437
1035.6	40.2383
1038.5	4.7583
1041.39	52.0942
1044.28	3.11279
1047.17	52.4233
1050.07	67.7612
1052.96	26.2153
1055.85	26.9019
1058.75	21.5518
1061.64	16.5127
1064.53	87.207
1067.42	45.5942
1070.32	66.0156
1073.21	74.2661
1076.1	63.1865
1078.99	45.2105
1081.89	92.5259
1084.78	41.561
1087.67	21.0405
1090.57	66.1069
1093.46	2.26807
1096.35	96.7271
1099.24	56.0342
1102.14	84.1352
1105.03	52.3706
1107.92	44.7036
1110.82	9.53027
1113.71	72.7876
1116.6	140.219
1119.49	6.71094
1122.38	80.6362
1125.28	65.2544
1128.17	63.3682
1131.06	47.5
1133.96	64.3579
1136.85	53.5298
1139.74	26.4009
1142.63	44.2871
1145.53	49.6465
1148.42	59.9106
1151.31	30.9541
1154.2	70.5962
1157.1	69.9898
1159.99	74.6816
1162.88	55.1411
1165.78	80.0547
1168.67	9.89941
1171.56	41.2905
1174.45	32.7495
1177.35	90.2271
1180.24	56.5571
1183.13	11.2095
1186.03	82.0942
1188.92	58.5615
1191.81	90.4414
1194.7	71.7437
1197.6	34.1851
1200.49	38.2246
1203.38	14.0898
1206.27	1.17188
1209.17	99.9331
1212.06	81.3975
1214.95	25.2349
1217.85	42.1714
1220.74	40.7124
1223.63	64.1436
1226.52	4.83447
1229.41	0
