Measurement: Raman, 532 nm, unoriented, Raman Data Processed
Mineral: Thaumasite
Rruff sample: R060814
Ideal chemistry: Ca_3_Si(OH)_6_(S^6+^O_4_)(CO_3_)12H_2_O
Locality: Crestmore Quarry, Riverside County, Jurupa Mountains, California, USA
Source: Michael Scott
Description: Mass of colorless acicular crystals associated with afwillite, R080022
Raman shift (cm-1)	intensity
156.081	0
158.974	0.547379
161.867	0.84774
164.76	1.68827
167.652	4.38692
170.545	5.79054
173.438	7.57161
176.33	9.04104
179.223	10.2228
182.116	12.3004
185.008	13.5491
187.901	16.8906
190.794	17.3189
193.686	20.1137
196.579	21.6671
199.472	24.0303
202.365	24.3322
205.257	26.3339
208.15	28.5202
211.043	27.3246
213.935	26.123
216.828	22.0188
219.721	19.6371
222.613	17.26
225.506	16.691
228.399	15.236
231.292	13.9048
234.184	12.7513
237.077	11.5211
239.97	9.76609
242.862	8.55519
245.755	7.38009
248.648	7.10731
251.541	5.97687
254.433	4.48383
257.326	2.8264
260.219	1.31537
263.111	1.14317
266.004	0.447662
268.897	0.375925
271.789	0.227875
274.682	0.62093
277.575	0.353207
280.467	0.357641
283.36	0.520592
286.253	0.174604
289.146	0.469948
292.038	0.034187
294.931	0.37936
297.824	0.409924
300.716	0.248051
303.609	0.299936
306.502	1.0189
309.394	0.785225
312.287	1.22943
315.18	0.86689
318.073	0.866184
320.965	1.00676
323.858	1.22894
326.751	1.10034
329.643	0.622187
332.536	0.689173
335.429	0.120953
338.322	0.30319
341.214	0.249243
344.107	0.203455
347	0.471254
349.892	0.516251
352.785	1.31941
355.678	1.91867
358.57	2.45788
361.463	3.04125
364.356	4.47757
367.248	5.01775
370.141	5.16425
373.034	4.71288
375.927	3.29883
378.819	2.90724
381.712	2.34981
384.605	1.58704
387.497	1.17506
390.39	1.09544
393.283	1.81089
396.175	1.7427
399.068	2.60311
401.961	2.62931
404.853	3.10251
407.746	2.96047
410.639	4.2391
413.532	5.69048
416.424	6.92046
419.317	7.83197
422.21	7.95842
425.102	8.75905
427.995	9.47955
430.888	10.5734
433.781	11.9335
436.673	12.827
439.566	14.7439
442.459	18.0325
445.351	20.3456
448.244	22.5803
451.137	23.7935
454.029	22.9184
456.922	20.1381
459.815	16.2765
462.708	12.923
465.6	9.5595
468.493	6.65652
471.386	5.10821
474.278	4.31091
477.171	2.59879
480.064	2.20607
482.957	1.71204
485.849	0.52323
488.742	0.063936
491.635	0.124928
494.527	0.302107
497.42	0.043308
500.313	0.323317
503.205	0.243587
506.098	0.557793
508.991	0.164257
511.884	0.28282
514.776	0.666286
517.669	0.191505
520.562	1.02713
523.454	0.902336
526.347	1.84608
529.24	2.7108
532.132	3.84582
535.025	5.25004
537.918	6.60337
540.81	7.51035
543.703	8.35155
546.596	8.16904
549.489	7.38809
552.381	6.47039
555.274	4.78577
558.167	3.40184
561.059	2.16793
563.952	1.21069
566.845	0.949768
569.737	0.50704
572.63	1.03674
575.523	0.888725
578.415	1.49439
581.308	1.72835
584.201	2.24272
587.094	3.09959
589.986	3.21956
592.879	3.95606
595.772	3.91919
598.664	4.70274
601.557	5.73478
604.45	5.72916
607.342	5.95665
610.235	5.38813
613.128	6.25861
616.021	5.35882
618.913	5.77005
621.806	5.96028
624.699	5.82831
627.591	6.44968
630.484	6.5043
633.377	8.6552
636.269	11.2109
639.162	15.2616
642.055	20.1901
644.948	26.4918
647.84	33.1287
650.733	41.101
653.626	44.2283
656.518	40.1752
659.411	28.5144
662.304	15.7751
665.197	8.34873
668.089	4.2384
670.982	2.66969
673.875	1.35421
676.767	0.464046
679.66	0.263609
682.553	0.371084
685.445	0.030367
688.338	0.006609
691.231	0.03952
694.124	0.209829
697.016	0.193378
699.909	0.015303
702.802	0.169394
705.694	0.284113
708.587	0.081816
711.48	0.058249
714.372	0.365973
717.265	0.013083
720.158	0.339134
723.051	0.540854
725.943	0.968447
728.836	0.359737
731.729	0.98374
734.621	0.947229
737.514	1.40748
740.407	1.58724
743.299	1.77423
746.192	1.92464
749.085	2.31705
751.977	2.97864
754.87	3.67409
757.763	3.62063
760.656	4.06055
763.548	4.41797
766.441	4.01059
769.334	3.68751
772.226	2.90411
775.119	2.25572
778.012	1.87773
780.904	1.44792
783.797	1.50596
786.69	1.08179
789.583	0.523628
792.475	1.43246
795.368	0.857821
798.261	0.645004
801.153	0.436113
804.046	0.355246
806.939	0.951969
809.832	0.707079
812.724	0.744236
815.617	0.522093
818.51	0.551321
821.402	0.377457
824.295	0.89476
827.188	0.127615
830.08	0.668383
832.973	0.610697
835.866	0.344286
838.759	0.39205
841.651	0.675526
844.544	0.299673
847.437	0.045486
850.329	0.208092
853.222	0.271666
856.115	0.565468
859.007	0.004822
861.9	0.348644
864.793	0.834488
867.686	0.472555
870.578	0.75053
873.471	1.06389
876.364	0.628738
879.256	0.675238
882.149	0.755032
885.042	1.12143
887.934	0.767723
890.827	0.341202
893.72	0.625414
896.612	0.507393
899.505	0.554647
902.398	0.279434
905.291	0.360798
908.183	0.181353
911.076	0.42379
913.969	0.65353
916.861	0.04423
919.754	0.19739
922.647	0.155735
925.539	0.244324
928.432	0.218695
931.325	0.075954
934.218	0.385542
937.11	0.223551
940.003	0.453278
942.896	0.102217
945.788	0.564419
948.681	0.632473
951.574	0.673717
954.466	0.75247
957.359	0.934607
960.252	1.88117
963.144	2.51778
966.037	3.63733
968.93	5.3258
971.823	10.3712
974.715	21.8058
977.608	46.5088
980.501	76.4342
983.393	117.088
986.286	197.116
989.179	299.331
992.072	249.142
994.964	103.703
997.857	36.857
1000.75	15.5808
1003.64	7.94317
1006.53	4.82506
1009.43	3.23551
1012.32	1.93981
1015.21	1.43534
1018.11	0.831766
1021	0.613977
1023.89	0.17852
1026.78	0.301638
1029.68	0.22827
1032.57	0.117968
1035.46	0.320351
1038.36	0.207886
1041.25	0.019279
1044.14	0.251741
1047.03	0.408072
1049.93	1.26791
1052.82	2.94901
1055.71	6.38279
1058.6	11.5089
1061.5	21.4127
1064.39	34.0219
1067.28	49.4363
1070.17	65.0764
1073.07	68.522
1075.96	40.3336
1078.85	19.4962
1081.74	10.9555
1084.64	7.26506
1087.53	5.58305
1090.42	5.82133
1093.32	5.66169
1096.21	6.21859
1099.1	5.63637
1101.99	6.16444
1104.89	6.79913
1107.78	6.76402
1110.67	7.96254
1113.57	7.61522
1116.46	7.86962
1119.35	7.64801
1122.24	7.86223
1125.14	7.56337
1128.03	6.98206
1130.92	6.63678
1133.81	5.95557
1136.71	5.34056
1139.6	4.50794
1142.49	4.21775
1145.38	3.51509
1148.28	2.48944
1151.17	2.40382
1154.06	1.75387
1156.95	1.03089
1159.85	1.08968
1162.74	0.99037
1165.63	0.455374
1168.53	0.357233
1171.42	0.001352
1174.31	0.203321
1177.2	0.03035
1180.1	0.261679
1182.99	0.016108
1185.88	0.053104
1188.78	0.107038
1191.67	0.236629
1194.56	0.305027
1197.45	0.211971
1200.35	0.109238
1203.24	0.221836
1206.13	0.172619
1209.02	0.13415
1211.92	0.556953
1214.81	0.653589
1217.7	0.584154
1220.6	0.639503
1223.49	0.938347
1226.38	0.572044
1229.27	0.280504
1232.17	0.686371
1235.06	0.646914
1237.95	0.541107
1240.84	0.583424
1243.74	0.589367
1246.63	0.374596
1249.52	0.751398
1252.41	0.558823
1255.31	0.569317
1258.2	0.222155
1261.09	0.642118
1263.98	0.996893
1266.88	0.344744
1269.77	0.267027
1272.66	0.480043
1275.56	0.243719
1278.45	0.550768
1281.34	0.530931
1284.23	0.459764
1287.13	0.121058
1290.02	0.607536
1292.91	0.245676
1295.81	0.391073
1298.7	0.303862
1301.59	0.198513
1304.48	0.057131
