Measurement: Raman, 532 nm, unoriented, Raman Data Processed
Mineral: Theisite
Rruff sample: R060478
Ideal chemistry: Cu^2+^_5_Zn^2+^_5_As^5+^_2_O_8_(OH)_14_
Locality: near Grand Junction, Mesa County, Colorado, USA
Source: Michael Scott
Description: Light blue spherical or granular-looking aggregates of micaceous crystals
Raman shift (cm-1)	intensity
211.678	0
214.57	142.59
217.463	157.5
220.356	349.312
223.248	653.953
226.141	771.504
229.034	1100.3
231.926	1347.37
234.819	1447.71
237.712	1533.25
240.605	1570.99
243.497	1719.3
246.39	1755.69
249.283	1652.02
252.176	1376.4
255.068	1146.45
257.961	1235
260.854	1324.73
263.746	1898.99
266.639	1800.75
269.532	1176.21
272.424	829.312
275.317	709.371
278.21	685.047
281.103	962.797
283.995	763.793
286.888	656.773
289.781	360.043
292.673	204.816
295.566	82.734
298.459	257.887
301.351	71.039
304.244	295.285
307.137	490.906
310.03	563.195
312.922	487.551
315.815	300.43
318.708	207.535
321.6	177.852
324.493	290.496
327.386	471.957
330.278	455.016
333.171	326.859
336.064	309.684
338.957	101.203
341.849	84.777
344.742	126.32
347.635	9.141
350.527	190.68
353.42	570.086
356.313	460.641
359.205	340.398
362.098	255.445
364.991	230.32
367.884	500.383
370.776	523.914
373.669	542.391
376.562	702.602
379.454	785.055
382.347	331.164
385.24	453.961
388.132	618.453
391.025	765.023
393.918	626.648
396.81	378.828
399.703	238.273
402.596	164.234
405.489	567.594
408.381	581.945
411.274	473.609
414.167	769.867
417.06	805.641
419.952	1034.92
422.845	855.539
425.738	825.312
428.63	533.328
431.523	598.859
434.416	462.07
437.308	425.602
440.201	649.32
443.094	127.898
445.987	210.75
448.879	309.742
451.772	41.102
454.665	105.242
457.557	211.211
460.45	91.164
463.343	122.828
466.235	5.844
469.128	321.359
472.021	497.672
474.914	496.344
477.806	220.898
480.699	242.68
483.592	384.234
486.484	1050.6
489.377	1061.21
492.27	728.492
495.162	999.938
498.055	679.242
500.948	1015.84
503.841	1133.41
506.733	1213.06
509.626	1141.45
512.519	1208.89
515.411	1260.94
518.304	1327.53
521.197	1417.79
524.089	1421.77
526.982	1153.89
529.875	1380.84
532.768	851.664
535.66	649.594
538.553	539.797
541.446	512.164
544.338	544.68
547.231	723.477
550.124	426.539
553.016	224.047
555.909	21.562
558.802	71.055
561.695	49.336
564.587	203.273
567.48	308.094
570.373	312.078
573.265	214.062
576.158	100.445
579.051	47.398
581.943	50.32
584.836	83.852
587.729	287.328
590.622	226.141
593.514	136.992
596.407	12.609
599.3	19.594
602.192	50.234
605.085	137.734
607.978	185.547
610.87	208.695
613.763	145.266
616.656	211.648
619.549	192.172
622.441	457.031
625.334	616.008
628.227	404.586
631.119	632.93
634.012	46.617
636.905	101.406
639.797	23.32
642.69	0.922
645.583	263.523
648.476	351
651.368	672.906
654.261	571.93
657.154	575.281
660.046	278.539
662.939	552.109
665.832	208.977
668.724	243.352
671.617	617.203
674.51	721.727
677.403	386.797
680.295	501.211
683.188	1114.84
686.081	1752.91
688.973	1939.9
691.866	2363.86
694.759	2585.72
697.652	2673.52
700.544	2147.02
703.437	1861.99
706.33	1401.73
709.222	1083.64
712.115	521.391
715.008	105.914
717.901	629.484
720.793	519.789
723.686	426.164
726.579	414.562
729.471	429.508
732.364	205.797
735.257	62.602
738.149	240.055
741.042	13.766
743.935	14.727
746.828	565.875
749.72	639.336
752.613	167.57
755.506	26.32
758.398	214.633
761.291	101.688
764.184	232.484
767.076	128.273
769.969	57.258
772.862	173.484
775.755	385.406
778.647	504.852
781.54	576.008
784.433	798.641
787.325	878.195
790.218	1031
793.111	1427.96
796.003	1417.64
798.896	1425.86
801.789	1398.21
804.682	1514.34
807.574	1670.67
810.467	1645.02
813.36	2163.02
816.252	2544.32
819.145	2828.33
822.038	3191.32
824.93	3750.49
827.823	4655.56
830.716	5538.84
833.609	5858.63
836.501	5749.05
839.394	5723.77
842.287	5329.3
845.179	5027.27
848.072	4729.96
850.965	3931.43
853.857	3353.92
856.75	2694.31
859.643	2329.69
862.536	2185.45
865.428	1761.98
868.321	1294.21
871.214	910.375
874.106	565.656
876.999	282.711
879.892	284.969
882.784	256.297
885.677	159.469
888.57	244.461
891.463	373.859
894.355	443.609
897.248	645.391
900.141	434.055
903.033	113.836
905.926	21.32
908.819	81.859
911.711	177.555
914.604	3.844
917.497	32.109
920.39	167.656
923.282	225.508
926.175	515.023
929.068	929
931.96	537.477
934.853	415.562
937.746	318.633
940.638	359.914
943.531	334.148
946.424	222.938
949.317	196.992
952.209	46.156
955.102	229.656
957.995	19.094
960.888	140.938
963.78	78.117
966.673	418.062
969.566	201.094
972.458	330.391
975.351	302.203
978.244	110.281
981.136	319.5
984.029	424.477
986.922	219.227
989.815	14.281
992.707	8.102
995.6	16.234
998.493	311.883
1001.38	270.32
1004.28	204.008
1007.17	415.297
1010.06	96.109
1012.96	312.547
1015.85	154.055
1018.74	155.336
1021.63	177.18
1024.53	184.227
1027.42	398.367
1030.31	371.625
1033.2	385.273
1036.1	311.281
1038.99	508.031
1041.88	524.25
1044.78	291.086
1047.67	118.273
1050.56	222.719
1053.45	315.656
1056.35	596.555
1059.24	615.953
1062.13	362.016
1065.03	42.852
1067.92	10.633
1070.81	372.234
1073.7	186.734
1076.6	121.617
1079.49	86.93
1082.38	11.859
1085.27	8.281
1088.17	126.703
1091.06	178.477
1093.95	266.648
1096.84	375.57
1099.74	319.5
1102.63	418.25
1105.52	378.859
1108.41	515.273
1111.31	272.68
1114.2	129.273
1117.09	91.008
1119.99	8.688
1122.88	5.984
1125.77	79.445
1128.66	342.562
1131.56	710.406
1134.45	575.672
1137.34	288.688
1140.23	148.539
1143.13	797.047
1146.02	430.945
1148.91	138.266
1151.81	159.016
1154.7	275.711
1157.59	345.836
1160.48	217.984
1163.38	248.43
1166.27	40.867
1169.16	0.273
1172.06	34.164
1174.95	415.766
1177.84	498.508
1180.73	372.625
1183.62	500.555
1186.52	729.828
1189.41	437.203
1192.3	272.523
1195.2	152.562
1198.09	199.766
1200.98	136.039
1203.87	224.266
1206.77	400.812
1209.66	345.984
1212.55	572.047
1215.44	451.93
1218.34	370.406
1221.23	136.672
1224.12	205.078
1227.02	391.508
1229.91	569.164
1232.8	402.5
1235.69	576.688
1238.59	777.602
1241.48	564.117
1244.37	401.141
1247.27	735.82
1250.16	762.023
1253.05	633.039
1255.94	364.758
1258.84	555.367
1261.73	474.438
1264.62	26.516
1267.51	65.562
1270.41	535.008
1273.3	831.914
1276.19	731.578
1279.09	452.266
1281.98	455.375
1284.87	116.094
1287.76	158.352
1290.66	62.281
