Measurement: Raman, 780 nm, unoriented, Raman Data Processed
Mineral: Thorianite
Rruff sample: R130003
Ideal chemistry: ThO_2_
Locality: Millar's mine, Tory Hill, Monmouth Township, Haliburton County, Ontario, Canada
Source: Don Doell
Description: Broken black cubes
Raman shift (cm-1)	intensity
138.807	0
141.7	0.391281
144.593	0.710892
147.485	1.00113
150.378	2.92207
153.271	1.70029
156.163	2.82427
159.056	2.78058
161.949	2.65025
164.842	0.57959
167.734	3.24966
170.627	3.44466
173.52	2.32082
176.412	1.70517
179.305	1.52359
182.198	0.338531
185.09	1.32112
187.983	1.59282
190.876	0.165176
193.769	2.11938
196.661	0.186188
199.554	0.945923
202.447	2.24603
205.339	2.09149
208.232	3.76688
211.125	4.09416
214.018	5.89949
216.91	7.01283
219.803	6.16141
222.696	7.75481
225.588	6.47955
228.481	7.00594
231.374	7.14058
234.266	8.12093
237.159	8.99235
240.052	9.94995
242.945	8.98153
245.837	8.50547
248.73	6.53455
251.623	6.61747
254.515	3.30586
257.408	5.32362
260.301	4.13475
263.193	3.81766
266.086	3.65368
268.979	2.4484
271.872	3.57316
274.764	2.72214
277.657	2.81962
280.55	2.79075
283.442	2.20137
286.335	3.93658
289.228	3.2858
292.12	3.184
295.013	1.60824
297.906	0.839554
300.798	2.42344
303.691	0.725288
306.584	2.57006
309.476	1.58962
312.369	0.187737
315.262	2.28925
318.155	0.708405
321.047	1.29501
323.94	1.30026
326.833	0.399582
329.725	1.92894
332.618	0.87603
335.511	0.598854
338.404	0.252022
341.296	0.533012
344.189	0.020081
347.082	0.14045
349.974	0.212219
352.867	1.78796
355.76	0.525948
358.652	0.166168
361.545	0.56707
364.438	0.488007
367.33	1.00375
370.223	0.353035
373.116	0.636955
376.009	0.492943
378.901	1.38644
381.794	0.003098
384.687	1.26942
387.579	2.73132
390.472	0.961021
393.365	1.87888
396.257	2.57976
399.15	2.68945
402.043	3.29152
404.935	3.38374
407.828	5.04871
410.721	6.75042
413.614	5.85213
416.506	6.83046
419.399	9.16785
422.292	10.8407
425.184	13.3163
428.077	13.5061
430.97	14.4549
433.863	16.2743
436.755	17.601
439.648	18.5815
442.541	20.9868
445.433	22.5403
448.326	24.3098
451.219	24.8095
454.111	24.4101
457.004	24.231
459.897	22.5514
462.789	22.7472
465.682	22.4416
468.575	21.755
471.468	19.9151
474.36	18.0365
477.253	16.4588
480.146	15.6832
483.038	13.8877
485.931	11.2043
488.824	10.2745
491.716	7.64905
494.609	7.93298
497.502	7.43124
500.395	4.63209
503.287	4.88519
506.18	2.65635
509.073	2.29599
511.965	1.67895
514.858	0.928741
517.751	0.936806
520.644	0.418129
523.536	1.48918
526.429	0.367928
529.322	1.26904
532.214	1.66091
535.107	0.372871
538	0.668518
540.892	0.666229
543.785	1.23963
546.678	2.3823
549.57	4.84557
552.463	7.31867
555.356	7.5586
558.249	8.5033
561.141	7.67658
564.034	8.79385
566.927	10.2309
569.819	10.6741
572.712	10.8132
575.605	11.0269
578.497	11.9524
581.39	11.0886
584.283	10.6705
587.176	9.33143
590.068	8.7614
592.961	9.03722
595.854	10.645
598.746	9.86828
601.639	8.26086
604.532	11.012
607.424	10.6278
610.317	11.9518
613.21	12.2418
616.102	14.4457
618.995	16.1611
621.888	17.5886
624.781	17.9366
627.673	19.3418
630.566	19.566
633.459	20.7599
636.351	21.579
639.244	21.0637
642.137	19.3561
645.029	18.884
647.922	18.5139
650.815	18.434
653.708	16.7079
656.6	17.1462
659.493	15.6416
662.386	12.8187
665.278	13.0877
668.171	11.8871
671.064	10.3616
673.957	8.19934
676.849	7.83019
679.742	6.25609
682.635	4.53521
685.527	5.13823
688.42	4.66331
691.313	3.36323
694.205	2.45841
697.098	2.36521
699.991	0.878471
702.884	0.460251
705.776	1.55475
708.669	2.65769
711.562	0.38414
714.454	0.725945
717.347	0.730324
720.24	0.342789
723.132	0.562843
726.025	0.293907
728.918	0.017143
731.81	0.029724
734.703	0.712868
737.596	1.65514
740.489	0.96183
743.381	0.842537
746.274	0.051876
749.167	0.134277
752.059	0.122654
754.952	1.18959
757.845	1.64844
760.737	1.25461
763.63	1.4096
766.523	1.99446
769.415	2.17973
772.308	2.68493
775.201	2.9842
778.094	2.73332
780.986	2.49318
783.879	2.26511
786.772	3.50773
789.664	2.8835
792.557	2.35543
795.45	3.63846
798.342	3.25891
801.235	2.41642
804.128	4.00164
807.021	4.27427
809.913	4.60491
812.806	3.05278
815.699	3.41426
818.591	3.54202
821.484	4.00873
824.377	4.20266
827.269	4.22862
830.162	4.04924
833.055	3.68153
835.948	4.67989
838.84	4.34716
841.733	4.26739
844.626	4.65247
847.518	5.26908
850.411	3.87586
853.304	5.14678
856.197	4.48481
859.089	3.70254
861.982	5.28328
864.875	3.82201
867.767	4.19216
870.66	4.83563
873.553	3.86499
876.445	2.49791
879.338	1.8035
882.231	2.67506
885.123	2.07024
888.016	1.53883
890.909	1.42063
893.802	0.148232
896.694	0.025677
899.587	0.223373
902.48	1.0639
905.372	0.605114
908.265	0.266731
911.158	0.346111
914.05	1.32549
916.943	0.552486
919.836	0.708801
922.729	0.342819
925.621	0.105816
928.514	0.168613
931.407	1.19634
934.299	0.617649
937.192	0.885044
940.085	1.56547
942.977	0.231369
945.87	0.511513
948.763	0.900955
951.655	0.227562
954.548	0.528122
957.441	0.897972
960.334	0.969433
963.226	0.335346
966.119	1.09332
969.012	0.766083
971.904	0.99704
974.797	0.160854
977.69	1.36687
980.582	1.55866
983.475	1.51371
986.368	0.82555
989.261	1.10376
992.153	1.63615
995.046	2.08273
997.939	1.62871
1000.83	1.86008
1003.72	2.05477
1006.62	1.79106
1009.51	0.470467
1012.4	1.18729
1015.29	1.99239
1018.19	0.93668
1021.08	2.24802
1023.97	1.78536
1026.87	1.44132
1029.76	1.57206
1032.65	1.96511
1035.54	2.50326
1038.44	0.86512
1041.33	2.93017
1044.22	1.17852
1047.12	1.76182
1050.01	1.68249
1052.9	1.07023
1055.79	1.49474
1058.68	1.5957
1061.58	1.03999
1064.47	1.11122
1067.36	1.43099
1070.26	1.4251
1073.15	1.22293
1076.04	0.9137
1078.93	0.983006
1081.83	0.323025
1084.72	0.972462
1087.61	0.403336
1090.51	0.035164
1093.4	0.021843
1096.29	0.098465
1099.18	0.958496
1102.08	0.845589
1104.97	0.486012
1107.86	0.755024
1110.75	0.758732
1113.65	0.878952
1116.54	2.09009
1119.43	1.26495
1122.33	1.79985
1125.22	0.974304
1128.11	0.175587
1131	0.818871
1133.9	0.173187
1136.79	1.27662
1139.68	1.05556
1142.57	0.228992
1145.47	0.630356
1148.36	0.946823
1151.25	1.14991
1154.14	1.77486
1157.04	0.23534
1159.93	1.14348
1162.82	1.39659
1165.71	0.370708
1168.61	0.154755
1171.5	1.01823
1174.39	0.179184
1177.29	1.08376
1180.18	1.41199
1183.07	0.52496
1185.96	1.56742
1188.86	0.660484
1191.75	1.83261
1194.64	0.622261
1197.54	0.794163
1200.43	0.887383
1203.32	0.314445
1206.21	2.36164
1209.11	1.87311
1212	1.48168
1214.89	2.1257
1217.78	0.905937
1220.68	1.39393
1223.57	0.785141
1226.46	0.703251
1229.35	1.12314
1232.25	0.722778
1235.14	2.05742
1238.03	1.10675
1240.92	1.00984
1243.82	1.21835
1246.71	1.80251
1249.6	1.26234
1252.5	0.971733
1255.39	0.560669
1258.28	0.612778
1261.17	1.32279
1264.07	0.496582
1266.96	0.456501
1269.85	0.983219
1272.74	0.968079
1275.64	0.924923
1278.53	0.636845
1281.42	0.324196
1284.32	0.218784
