Measurement: Raman, 785 nm, unoriented, Raman Data Processed
Mineral: Thortveitite
Rruff sample: R061065
Ideal chemistry: Sc^3+^_2_Si_2_O_7_
Locality: Synthetic
Source: Bob Downs
Description: Colorless fragment
Raman shift (cm-1)	intensity
170.222	0
173.115	32.0034
176.007	62.5806
178.9	14.7637
181.793	67.7227
184.685	259.496
187.578	645.849
190.471	1395.42
193.363	3324.82
196.256	1560.06
199.149	1498.64
202.042	2262.44
204.934	4121.8
207.827	2758.39
210.72	2530.95
213.612	2681.77
216.505	2963.1
219.398	3297.6
222.291	3440.37
225.183	3416.12
228.076	3275.08
230.969	2988.05
233.861	2722.9
236.754	2453.36
239.647	2127.5
242.539	1798.39
245.432	1462.1
248.325	1377.41
251.218	1535.91
254.11	2079.6
257.003	533.276
259.896	168.506
262.788	41.0889
265.681	9.53565
268.574	90.2241
271.466	58.4302
274.359	4.54932
277.252	268.479
280.144	550.571
283.037	445.027
285.93	330.712
288.823	455.618
291.715	738.585
294.608	1011.83
297.501	1487.01
300.393	1973.02
303.286	2698.38
306.179	3586.91
309.072	4432.03
311.964	5354.54
314.857	6110.67
317.75	6781.68
320.642	7146.4
323.535	7098.99
326.428	6740.23
329.32	6140.28
332.213	5250.29
335.106	4315.93
337.998	3640.08
340.891	3148.11
343.784	2925.65
346.677	3169.53
349.569	2790.66
352.462	1458.44
355.355	747.953
358.247	365.418
361.14	70.2295
364.033	131.783
366.925	264.442
369.818	218.974
372.711	97.9961
375.604	102.185
378.496	424.275
381.389	1010.7
384.282	1854.74
387.174	3381.48
390.067	5614.94
392.96	8306.87
395.853	10023.1
398.745	10465.2
401.638	9260.24
404.531	8267.84
407.423	7999.25
410.316	7981.09
413.209	7872.37
416.101	7746.14
418.994	7372.99
421.887	7151.32
424.779	7194.03
427.672	7784.47
430.565	9444.35
433.458	11570.5
436.35	11039
439.243	8095.88
442.136	6541.14
445.028	5848.62
447.921	4785.77
450.814	3778.39
453.707	3142.91
456.599	2675.79
459.492	2365.82
462.385	2019.1
465.277	1875.77
468.17	1688.82
471.063	1470.21
473.955	1371.62
476.848	1156.84
479.741	935.278
482.634	791.876
485.526	654.976
488.419	575.262
491.312	438.09
494.204	336.534
497.097	276.18
499.99	192.094
502.882	354.309
505.775	689.779
508.668	1478.85
511.56	1261.73
514.453	324.257
517.346	51.208
520.239	129.04
523.131	171.936
526.024	151.296
528.917	100.469
531.809	60.2148
534.702	93.3286
537.595	438.904
540.487	778.714
543.38	1177.52
546.273	889.444
549.166	467.584
552.058	332.881
554.951	224.649
557.844	264.346
560.736	254.488
563.629	268.505
566.522	264.899
569.414	238.856
572.307	290.095
575.2	278.755
578.093	277.454
580.985	285.553
583.878	185.878
586.771	115.999
589.663	95.2725
592.556	87.3794
595.449	29.0166
598.341	25.1792
601.234	22.1592
604.127	0.007813
607.02	4.99634
609.912	23.7273
612.805	7.68726
615.698	2.95459
618.59	12.5102
621.483	51.0332
624.376	57.2993
627.269	64.7292
630.161	120.894
633.054	182.553
635.947	206.208
638.839	187.76
641.732	293.93
644.625	306.302
647.517	410.434
650.41	435.884
653.303	542.803
656.196	617.187
659.088	691.876
661.981	729.145
664.874	793.712
667.766	809.312
670.659	887.719
673.552	904.03
676.444	978.35
679.337	1028.19
682.23	1084.84
685.122	1173.79
688.015	1137.9
690.908	1101.54
693.801	1005.28
696.693	855.107
699.586	757.648
702.479	727.882
705.371	663.847
708.264	632.185
711.157	565.154
714.049	512.173
716.942	491.165
719.835	434.426
722.728	389.727
725.62	358.191
728.513	305.57
731.406	230.466
734.298	258.037
737.191	182.347
740.084	129.966
742.976	123.771
745.869	31.1199
748.762	53.2211
751.655	39.7158
754.547	0.703735
757.44	18.6834
760.333	6.3158
763.225	11.2777
766.118	12.6233
769.011	29.3562
771.904	27.2295
774.796	20.39
777.689	5.71985
780.582	19.6471
783.474	37.0847
786.367	52.0636
789.26	35.5281
792.152	54.1932
795.045	66.6693
797.938	56.2511
800.831	94.4596
803.723	123.841
806.616	130.041
809.509	151.639
812.401	189.028
815.294	200.226
818.187	161.976
821.079	192.946
823.972	181.357
826.865	153.455
829.757	159.179
832.65	122.963
835.543	91.6908
838.436	91.0992
841.328	75.9919
844.221	73.7457
847.114	38.053
850.006	52.8518
852.899	41.5621
855.792	5.05042
858.684	8.44507
861.577	15.745
864.47	16.7972
867.362	3.40637
870.255	8.0285
873.148	2.27252
876.041	6.84454
878.933	11.5666
881.826	8.71454
884.719	0.086731
887.611	6.8844
890.504	22.5496
893.397	28.084
896.29	57.6426
899.182	60.7859
902.075	121.581
904.968	135.891
907.86	160.358
910.753	233.64
913.646	327.328
916.538	479.884
919.431	718.414
922.324	1295.1
925.217	2696.24
928.109	5492.52
931.002	9366.38
933.895	7034.32
936.787	2847.7
939.68	1664.84
942.573	1501.73
945.466	1700.04
948.358	1866.51
951.251	1535.43
954.144	941.205
957.036	512.992
959.929	305.339
962.822	198.167
965.714	139.345
968.607	77.2726
971.5	48.1796
974.393	9.71014
977.285	23.8772
980.178	24.5079
983.071	39.1915
985.963	18.4056
988.856	7.37384
991.749	0.251892
994.641	35.055
997.534	31.3255
1000.43	49.5026
1003.32	53.2228
1006.21	41.312
1009.11	30.6796
1012	25.5355
1014.89	14.4105
1017.78	7.75482
1020.68	0.105896
1023.57	9.68066
1026.46	12.7664
1029.35	10.483
1032.25	12.5577
1035.14	3.87897
1038.03	3.13422
1040.92	15.599
1043.82	10.7982
1046.71	1.72858
1049.6	22.9013
1052.49	12.2856
1055.39	7.61719
1058.28	21.8181
1061.17	9.97302
1064.07	19.6508
1066.96	5.81174
1069.85	23.0497
1072.74	3.71136
1075.64	8.51584
1078.53	13.6428
1081.42	20.9229
1084.32	17.0214
1087.21	15.6751
1090.1	12.1143
1092.99	27.5831
1095.89	18.3511
1098.78	25.3209
1101.67	10.3357
1104.56	22.9512
1107.46	9.39017
1110.35	8.78088
1113.24	18.1108
1116.13	37.3618
1119.03	23.4321
1121.92	10.9469
1124.81	24.7339
1127.71	16.607
1130.6	6.68866
1133.49	7.28418
1136.38	12.9235
1139.28	16.0178
1142.17	14.3479
1145.06	0.471619
1147.95	13.8347
1150.85	12.3495
1153.74	0.753174
1156.63	19.6014
1159.53	1.48282
1162.42	16.6195
1165.31	11.2235
1168.2	34.1416
1171.1	30.7833
1173.99	34.419
1176.88	25.211
1179.77	43.3608
1182.67	72.4096
1185.56	102.233
1188.45	142.908
1191.35	209.483
1194.24	230.329
1197.13	305.066
1200.02	390.791
1202.92	445.553
1205.81	461.992
1208.7	483.57
1211.59	490.177
1214.49	415.832
1217.38	326.794
1220.27	269.207
1223.16	225.246
1226.06	183.025
1228.95	143.755
1231.84	119.152
1234.73	85.5575
1237.63	59.4493
1240.52	67.6001
1243.41	59.9336
1246.31	7.95013
1249.2	36.8697
1252.09	8.91736
1254.98	23.383
1257.88	9.42773
1260.77	7.86649
1263.66	1.77493
1266.56	10.6949
1269.45	0.42041
