Measurement: Raman, 532 nm, unoriented, Raman Data Processed
Mineral: Tiemannite
Rruff sample: R050550
Ideal chemistry: Hg^2+^Se^2-^
Locality: Queretaro, Mexico
Source: Dave Bunk Minerals
Description: Grey semi-metallic fragments
Measured chemistry: Hg_1.00_(Se_0.81_S_0.19_)
Raman shift (cm-1)	intensity
182.41	0
185.303	0.704151
188.196	4.52645
191.088	7.71037
193.981	11.5021
196.874	9.98307
199.766	8.21747
202.659	6.55874
205.552	6.31212
208.445	6.71532
211.337	6.34346
214.23	6.29197
217.123	5.36179
220.015	4.734
222.908	3.42828
225.801	3.01428
228.693	2.07186
231.586	2.54168
234.479	2.12323
237.371	0.950176
240.264	2.15532
243.157	1.46605
246.05	1.17351
248.942	0.017143
251.835	1.74952
254.728	0.859837
257.62	1.19072
260.513	0.979771
263.406	0.830656
266.298	1.08774
269.191	0.025795
272.084	0.837379
274.977	0.560694
277.869	0.073132
280.762	0.348192
283.655	0.980696
286.547	0.129065
289.44	0.110868
292.333	0.355404
295.226	0.593872
298.118	0.313304
301.011	0.332426
303.904	0.546036
306.796	0.157102
309.689	0.764811
312.582	0.45392
315.474	0.462855
318.367	1.07121
321.26	0.140358
324.152	1.57594
327.045	0.835325
329.938	1.74571
332.831	1.71313
335.723	1.37958
338.616	2.29623
341.509	1.55296
344.401	2.08459
347.294	1.79971
350.187	1.89346
353.079	1.28014
355.972	1.68003
358.865	0.917834
361.758	1.70747
364.65	1.52974
367.543	1.15053
370.436	0.820877
373.328	1.05369
376.221	0.580758
379.114	1.11353
382.007	0.860959
384.899	0.359223
387.792	0.229411
390.685	0.785151
393.577	0.288798
396.47	1.0218
399.363	0.865918
402.255	0.515374
405.148	1.33175
408.041	1.60344
410.933	1.16039
413.826	1.92497
416.719	1.26333
419.612	0.956637
422.504	0.551549
425.397	1.33965
428.29	0.739288
431.182	1.59093
434.075	0.628172
436.968	1.6059
439.861	1.70187
442.753	1.17956
445.646	1.70321
448.539	1.16262
451.431	1.50117
454.324	0.606868
457.217	0.887384
460.109	0.928383
463.002	0.782461
465.895	0.305985
468.788	0.797611
471.68	1.04004
474.573	0.624584
477.466	0.528254
480.358	0.615877
483.251	1.1692
486.144	0.643225
489.036	0.29671
491.929	1.25714
494.822	0.759056
497.714	0.817948
500.607	0.144734
503.5	0.650036
506.393	1.04556
509.285	0.814093
512.178	0.789412
515.071	0.784667
517.963	1.23047
520.856	0.483989
523.749	0.62872
526.641	0.143566
529.534	0.975187
532.427	1.70853
535.32	0.934209
538.212	1.645
541.105	0.440025
543.998	0.976502
546.89	0.608665
549.783	1.43813
552.676	0.719119
555.568	0.296896
558.461	0.84651
561.354	0.590613
564.247	1.04844
567.139	0.337997
570.032	0.172405
572.925	1.72514
575.817	0.970932
578.71	0.9409
581.603	0.627441
584.495	1.14691
587.388	0.454867
590.281	1.49914
593.174	1.10858
596.066	1.14787
598.959	1.57591
601.852	0.046727
604.744	0.024297
607.637	0.049427
610.53	0.848511
613.423	0.295193
616.315	0.738929
619.208	1.17487
622.101	0.685097
624.993	0.501417
627.886	0.167842
630.779	0.255078
633.671	0.397669
636.564	0.885748
639.457	0.900386
642.35	0.837979
645.242	0.356219
648.135	0.954738
651.028	0.031322
653.92	1.17924
656.813	0.353931
659.706	0.400505
662.598	0.409032
665.491	0.679374
668.384	0.25569
671.277	0.522686
674.169	0.910058
677.062	0.471851
679.955	0.286194
682.847	0.488473
685.74	0.290521
688.633	0.664239
691.525	0.000971
694.418	0.874195
697.311	0.07105
700.203	0.6383
703.096	0.539079
705.989	0.23813
708.882	0.45493
711.774	0.041108
714.667	0.376914
717.56	0.176453
720.452	1.46679
723.345	0.554082
726.238	0.080025
729.13	0.982382
732.023	0.411901
734.916	0.014412
737.809	0.720609
740.701	0.601477
743.594	1.10037
746.487	0.533272
749.379	1.56897
752.272	0.159768
755.165	0.842649
758.058	0.284478
760.95	0.156497
763.843	0.050638
766.736	0.266409
769.628	0.580814
772.521	0.66257
775.414	0.851707
778.306	0.611854
781.199	0.912361
784.092	1.28104
786.985	0.937717
789.877	0.07208
792.77	0.016305
795.663	0.768074
798.555	0.00904
801.448	0.665578
804.341	1.10097
807.233	1.24439
810.126	0.055774
813.019	1.06975
815.912	0.927922
818.804	0.524279
821.697	0.918061
824.59	0.771029
827.482	0.714312
830.375	0.754602
833.268	0.965338
836.16	1.11625
839.053	1.18145
841.946	0.684421
844.838	0.667592
847.731	1.83018
850.624	0.430049
853.517	0.48347
856.409	0.442242
859.302	0.369611
862.195	0.405852
865.087	0.79861
867.98	1.05969
870.873	1.37164
873.765	0.435966
876.658	1.09794
879.551	0.990315
882.444	1.37995
885.336	0.076877
888.229	1.05033
891.122	0.948657
894.014	0.4705
896.907	1.04869
899.8	1.1834
902.692	1.06192
905.585	1.01135
908.478	0.372721
911.371	0.905895
914.263	0.307864
917.156	0.27587
920.049	0.841342
922.941	0.757354
925.834	0.471637
928.727	0.643829
931.62	0.75294
934.512	0.939918
937.405	0.196013
940.298	0.84899
943.19	1.22831
946.083	2.02246
948.976	0.435292
951.868	0.424859
954.761	0.212082
957.654	0.796324
960.547	0.9102
963.439	0.098595
966.332	0.229795
969.225	0.452119
972.117	0.778097
975.01	0.471303
977.903	0.738324
980.795	0.735983
983.688	0.680904
986.581	0.903558
989.473	0.721469
992.366	0.846716
995.259	1.38805
998.152	0.852123
1001.04	1.19115
1003.94	0.581415
1006.83	1.14769
1009.72	1.08757
1012.62	0.468547
1015.51	0.133115
1018.4	1.02672
1021.29	0.809433
1024.19	0.542584
1027.08	0.128981
1029.97	0.675709
1032.86	1.25189
1035.76	0.371582
1038.65	0.126032
1041.54	0.007515
1044.43	0.013919
1047.33	0.89022
1050.22	1.47182
1053.11	0.433578
1056.01	1.6892
1058.9	0.977974
1061.79	0.877163
1064.68	0.317448
1067.58	0.456417
1070.47	0.006155
1073.36	1.00392
1076.26	0.813618
1079.15	0.720073
1082.04	0.075248
1084.93	0.385342
1087.83	1.53945
1090.72	0.962935
1093.61	1.18798
1096.5	1.24781
1099.4	0.843018
1102.29	0.852125
1105.18	0.110889
1108.07	0.123189
1110.97	1.19946
1113.86	1.42914
1116.75	0.690349
1119.64	1.12505
1122.54	1.05333
1125.43	0.894312
1128.32	0.287856
1131.22	0.386438
1134.11	0.958113
1137	0.368178
1139.89	1.08307
1142.79	1.00266
1145.68	0.401222
1148.57	0.761698
1151.46	0.569203
1154.36	0.921738
1157.25	0.359511
1160.14	0.545272
1163.04	0.428482
1165.93	0.891844
1168.82	0.172177
1171.71	1.06658
1174.61	0.45817
1177.5	0.235304
1180.39	0.293181
1183.28	0.094879
1186.18	0.360567
1189.07	0.326559
1191.96	1.0033
1194.86	0.303813
1197.75	0.426306
1200.64	1.08302
1203.53	0.80115
1206.43	0.91393
1209.32	0.889476
1212.21	0.836305
1215.1	1.03874
1218	0.449127
1220.89	0.424678
1223.78	0.481857
1226.67	0.118963
1229.57	0.267632
1232.46	0.614079
1235.35	1.04469
1238.25	0.55938
1241.14	0.347275
1244.03	0.569783
1246.92	0.921929
1249.82	0.605499
1252.71	0.523942
1255.6	0.613334
1258.49	0.811252
1261.39	0.368094
1264.28	0.343889
1267.17	0.30064
1270.07	0.797939
1272.96	0.378042
1275.85	0.930081
1278.74	0.788149
1281.64	1.0241
1284.53	1.68139
1287.42	0.979748
1290.31	0.967488
1293.21	0.544993
1296.1	0.751439
1298.99	0.407634
1301.88	0
