Measurement: Raman, 780 nm, unoriented, Raman Data Processed
Mineral: Tiemannite
Rruff sample: R060463
Ideal chemistry: Hg^2+^Se^2-^
Locality: Lucky Boy mine, Cottonwood Creek, Marysvale, Piute County, Utah, USA
Source: Michael Scott
Description: Gray metallic bleb
Measured chemistry: Hg_1.02_Se_0.98_
Raman shift (cm-1)	intensity
117.156	0
120.531	1.43782
123.905	4.65144
127.28	7.58109
130.655	9.78171
134.03	7.71343
137.405	5.86054
140.779	3.58284
144.154	3.12042
147.529	1.2106
150.904	1.055
154.279	1.11641
157.654	0.20579
161.028	0.071946
164.403	1.8904
167.778	1.63036
171.153	0.329426
174.528	1.05675
177.902	1.67296
181.277	5.24906
184.652	1.23906
188.027	2.5997
191.402	2.75381
194.776	2.98209
198.151	1.90872
201.526	4.18872
204.901	4.15581
208.276	3.74648
211.651	3.76119
215.025	2.51223
218.4	3.73781
221.775	3.24606
225.15	3.10492
228.525	3.50682
231.899	1.33121
235.274	1.42781
238.649	3.05012
242.024	1.74077
245.399	2.98627
248.774	2.36544
252.148	2.65178
255.523	2.19729
258.898	3.31143
262.273	2.49161
265.648	2.73684
269.022	3.31515
272.397	1.54481
275.772	2.03217
279.147	1.99526
282.522	2.58813
285.897	5.07528
289.271	3.54135
292.646	2.51651
296.021	1.31197
299.396	1.55103
302.771	1.26712
306.145	2.62956
309.52	0.94995
312.895	1.32403
316.27	0.557671
319.645	0.037548
323.019	1.85318
326.394	1.58509
329.769	2.72233
333.144	0.684824
336.519	2.25443
339.894	3.26053
343.268	2.7976
346.643	2.67474
350.018	2.13071
353.393	2.04488
356.768	0.288617
360.142	1.54841
363.517	0.913607
366.892	1.72763
370.267	0.715606
373.642	0.301637
377.017	1.70243
380.391	5.88902
383.766	1.92622
387.141	2.36613
390.516	2.26555
393.891	1.4151
397.265	0.313903
400.64	0.935277
404.015	1.92318
407.39	2.28631
410.765	1.77917
414.14	2.5638
417.514	0.656104
420.889	0.259236
424.264	0.985814
427.639	0.456882
431.014	2.27209
434.389	1.17525
437.763	0.431748
441.138	1.32603
444.513	2.23623
447.888	1.49718
451.263	1.61451
454.637	1.04857
458.012	1.93938
461.387	0.954835
464.762	1.42015
468.137	2.6818
471.512	1.28897
474.886	0.385694
478.261	2.56074
481.636	3.48297
485.011	1.52344
488.386	2.67354
491.76	1.06643
495.135	0.226068
498.51	1.66018
501.885	1.66032
505.26	3.18581
508.635	2.59769
512.009	3.0964
515.384	2.62782
518.759	1.99649
522.134	0.081388
525.509	0.511003
528.883	0.971306
532.258	4.18932
535.633	2.49484
539.008	2.08166
542.383	4.20609
545.757	3.18851
549.132	2.36146
552.507	2.58562
555.882	2.61072
559.257	3.11513
562.631	0.968739
566.006	2.73917
569.381	3.77346
572.756	2.40322
576.131	3.89721
579.506	2.9271
582.88	1.44888
586.255	1.29731
589.63	0.917087
593.005	0.024591
596.38	1.77965
599.755	3.15189
603.129	1.53787
606.504	3.12432
609.879	0.083015
613.254	0.468817
616.629	2.16459
620.003	1.00887
623.378	1.51778
626.753	1.98626
630.128	1.07112
633.503	0.99381
636.878	2.92438
640.252	2.4064
643.627	0.712417
647.002	1.48357
650.377	3.47861
653.752	1.63557
657.126	2.34161
660.501	2.45014
663.876	2.98649
667.251	0.121021
670.626	1.21822
674	4.28329
677.375	3.33534
680.75	3.19576
684.125	3.64
687.5	1.58362
690.875	1.94233
694.249	3.24358
697.624	1.0737
700.999	0.874563
704.374	0.72477
707.749	1.25834
711.124	1.39413
714.498	3.00914
717.873	2.30395
721.248	3.20901
724.623	0.450979
727.998	2.46419
731.372	2.59231
734.747	2.65496
738.122	1.04406
741.497	2.03845
744.872	1.95983
748.246	1.58045
751.621	2.2704
754.996	0.226325
758.371	2.55075
761.746	3.80909
765.12	1.57237
768.495	0.242736
771.87	1.15867
775.245	3.38227
778.62	0.627772
781.995	0.381719
785.369	3.61024
788.744	2.67603
792.119	2.11799
795.494	0.432523
798.869	0.626207
802.244	1.24441
805.618	3.20082
808.993	2.47213
812.368	2.19997
815.743	1.37013
819.118	2.47278
822.492	2.15675
825.867	5.31478
829.242	2.56633
832.617	3.27535
835.992	4.27683
839.366	0.177472
842.741	2.02845
846.116	0.311981
849.491	1.75834
852.866	3.66216
856.241	5.06082
859.615	2.251
862.99	0.809792
866.365	0.787765
869.74	2.59757
873.115	4.73867
876.49	2.64615
879.864	0.51853
883.239	4.96717
886.614	0.163386
889.989	4.2994
893.364	2.73337
896.738	2.56877
900.113	2.31133
903.488	5.66586
906.863	3.06101
910.238	0.935001
913.612	2.68663
916.987	3.11555
920.362	3.09568
923.737	2.99679
927.112	1.6459
930.487	2.48737
933.861	4.2142
937.236	1.13099
940.611	2.79492
943.986	2.40196
947.361	2.85061
950.736	5.57994
954.11	3.73624
957.485	3.73073
960.86	2.83818
964.235	1.49883
967.61	0.030558
970.984	3.04372
974.359	3.19855
977.734	3.36422
981.109	1.57042
984.484	1.40931
987.859	2.20366
991.233	2.88717
994.608	1.08083
997.983	2.99243
1001.36	0.640718
1004.73	0.696738
1008.11	1.12807
1011.48	0.837981
1014.86	1.91702
1018.23	2.48105
1021.61	2.24348
1024.98	3.10413
1028.36	2.23592
1031.73	0.167721
1035.11	1.66738
1038.48	1.84552
1041.86	3.16846
1045.23	4.17721
1048.61	1.67567
1051.98	3.31941
1055.36	2.65537
1058.73	2.28408
1062.1	4.71424
1065.48	0.523197
1068.85	2.0387
1072.23	1.28788
1075.6	3.39794
1078.98	1.67036
1082.35	5.28515
1085.73	2.11425
1089.1	3.31294
1092.48	3.46895
1095.85	2.71439
1099.23	1.86746
1102.6	0.380418
1105.98	5.40274
1109.35	2.69654
1112.73	2.22057
1116.1	4.39646
1119.48	1.65792
1122.85	5.43759
1126.23	1.93162
1129.6	1.79465
1132.98	3.03746
1136.35	2.58224
1139.72	2.11217
1143.1	3.45023
1146.47	4.35354
1149.85	3.66845
1153.22	2.99532
1156.6	3.67225
1159.97	2.42641
1163.35	2.92938
1166.72	2.23186
1170.1	4.3314
1173.47	6.50971
1176.85	3.83641
1180.22	2.60941
1183.6	4.24972
1186.97	3.44983
1190.35	1.04778
1193.72	1.56872
1197.1	1.06616
1200.47	3.84896
1203.85	2.43435
1207.22	3.71846
1210.6	4.62083
1213.97	4.38004
1217.35	2.99184
1220.72	3.13431
1224.1	2.96408
1227.47	2.82295
1230.85	3.36805
1234.22	1.65771
1237.6	1.6389
1240.97	0.796369
1244.34	4.17501
1247.72	0.986079
1251.09	1.99286
1254.47	2.24269
1257.84	1.40037
1261.22	4.19153
1264.59	0.349945
1267.97	3.41803
1271.34	4.25087
1274.72	3.76914
1278.09	2.29988
1281.47	0.629825
1284.84	0.597097
