Measurement: Raman, 780 nm, unoriented, Raman Data Processed
Mineral: Tiemannite
Rruff sample: R050550
Ideal chemistry: Hg^2+^Se^2-^
Locality: Queretaro, Mexico
Source: Dave Bunk Minerals
Description: Grey semi-metallic fragments
Measured chemistry: Hg_1.00_(Se_0.81_S_0.19_)
Raman shift (cm-1)	intensity
113.859	0
117.234	0.632029
120.609	1.26498
123.984	2.50635
127.358	4.62116
130.733	5.5987
134.108	4.10621
137.483	3.49904
140.858	1.84406
144.232	1.94337
147.607	1.16317
150.982	1.1136
154.357	0.05147
157.732	0.28329
161.107	0.3157
164.481	0.197692
167.856	0.417684
171.231	0.267607
174.606	0.469268
177.981	0.467595
181.355	0.952561
184.73	0.787198
188.105	0.921763
191.48	1.3161
194.855	1.64664
198.229	1.61874
201.604	1.47452
204.979	1.85642
208.354	2.37243
211.729	1.73152
215.103	2.2651
218.478	1.10465
221.853	1.53528
225.228	0.514303
228.603	0.475142
231.978	1.21642
235.352	1.12812
238.727	0.917695
242.102	1.39951
245.477	0.530258
248.852	0.138268
252.226	0.859322
255.601	0.561364
258.976	0.637456
262.351	0.131642
265.726	0.155445
269.101	0.033323
272.475	0.59527
275.85	0.491281
279.225	0.250152
282.6	0.353592
285.975	0.31951
289.349	0.65506
292.724	0.41747
296.099	0.528397
299.474	0.085563
302.849	0.41414
306.224	0.31512
309.598	0.512471
312.973	0.009486
316.348	0.229178
319.723	0.492628
323.098	0.08441
326.472	0.23559
329.847	0.247234
333.222	0.531404
336.597	0.555434
339.972	0.465959
343.346	0.991794
346.721	0.445805
350.096	0.573415
353.471	0.322093
356.846	0.500985
360.221	0.661412
363.595	1.17645
366.97	0.71546
370.345	0.47319
373.72	0.401258
377.095	0.31952
380.469	0.390644
383.844	0.359259
387.219	0.10229
390.594	0.257359
393.969	0.111484
397.344	0.62844
400.718	0.749569
404.093	0.273763
407.468	0.605041
410.843	0.50239
414.217	0.774055
417.592	0.713521
420.967	0.558449
424.342	0.53642
427.717	0.04406
431.092	0.142246
434.466	0.098923
437.841	0.55851
441.216	0.935512
444.591	0.451183
447.966	0.304795
451.341	0.686291
454.715	0.196241
458.09	0.323195
461.465	0.334841
464.84	0.171605
468.215	0.775398
471.589	0.526604
474.964	0.52766
478.339	0.627126
481.714	0.8388
485.089	0.482742
488.463	0.029806
491.838	0.44992
495.213	0.260131
498.588	0.629025
501.963	0.388401
505.337	0.692372
508.712	0.797007
512.087	0.411589
515.462	0.430863
518.837	0.116466
522.212	0.122776
525.586	0.241555
528.961	0.657045
532.336	0.445629
535.711	0.863232
539.086	0.421694
542.46	0.570931
545.835	0.29826
549.21	0.510867
552.585	0.470858
555.96	0.569458
559.335	0.56081
562.709	0.662689
566.084	0.374721
569.459	0.403954
572.834	0.493115
576.209	0.457777
579.583	0.514415
582.958	0.428902
586.333	0.245971
589.708	0.292192
593.083	0.476188
596.457	0.970119
599.832	0.12293
603.207	0.591255
606.582	0.311934
609.957	0.598361
613.332	0.551654
616.706	0.6563
620.081	0.308707
623.456	0.473099
626.831	0.310128
630.206	0.678886
633.58	0.346544
636.955	0.659969
640.33	0.290185
643.705	0.449582
647.08	0.494034
650.455	0.522264
653.829	0.25319
657.204	0.577624
660.579	0.021171
663.954	0.118521
667.329	0.308983
670.703	0.593267
674.078	0.160929
677.453	0.394266
680.828	0.459058
684.203	0.63842
687.577	0.05924
690.952	0.615533
694.327	0.190483
697.702	0.782023
701.077	0.000454
704.452	0.253456
707.826	0.032942
711.201	0.305609
714.576	0.388252
717.951	0.433548
721.326	0.404157
724.7	0.112647
728.075	0.127208
731.45	0.06001
734.825	0.327239
738.2	0.323454
741.574	0.050598
744.949	0.781368
748.324	0.485703
751.699	0.162621
755.074	0.630502
758.449	0.395486
761.823	0.181514
765.198	0.766406
768.573	0.526015
771.948	0.723285
775.323	0.015063
778.697	0.498523
782.072	0.704554
785.447	0.228754
788.822	0.297008
792.197	0.175958
795.572	0.118138
798.946	0.498806
802.321	0.878436
805.696	0.335746
809.071	0.450798
812.446	0.510234
815.82	0.591702
819.195	0.480826
822.57	0.524774
825.945	0.694547
829.32	0.381642
832.694	0.383474
836.069	0.157611
839.444	0.633441
842.819	0.14194
846.194	0.617781
849.569	0.691789
852.943	0.130498
856.318	0.04613
859.693	0.077461
863.068	0.748933
866.443	0.412465
869.817	0.592994
873.192	0.679503
876.567	0.354114
879.942	0.207695
883.317	0.56737
886.692	0.438384
890.066	0.332095
893.441	0.563873
896.816	0.390602
900.191	0.327616
903.566	0.367076
906.94	0.203152
910.315	0.294555
913.69	0.155215
917.065	0.827752
920.44	0.543954
923.814	0.213495
927.189	0.630877
930.564	0.202858
933.939	0.223702
937.314	0.700025
940.689	0.470799
944.063	0.595357
947.438	0.622154
950.813	0.943029
954.188	0.351602
957.563	0.312981
960.937	0.566422
964.312	1.10637
967.687	0.597842
971.062	0.913599
974.437	0.859079
977.812	0.369291
981.186	0.17856
984.561	0.744394
987.936	0.724067
991.311	0.925768
994.686	0.296549
998.06	0.356381
1001.43	0.092466
1004.81	0.259892
1008.18	0.83878
1011.56	0.599565
1014.93	0.387246
1018.31	0.008255
1021.68	1.00055
1025.06	0.092043
1028.43	0.032713
1031.81	0.488047
1035.18	0.103328
1038.56	0.668686
1041.93	0.109233
1045.31	1.00579
1048.68	0.305699
1052.06	0.435143
1055.43	0.630929
1058.81	0.122242
1062.18	0.726427
1065.56	0.885
1068.93	1.24128
1072.31	0.560192
1075.68	1.07785
1079.06	0.575914
1082.43	0.357814
1085.81	1.11559
1089.18	0.64633
1092.56	0.120929
1095.93	0.009665
1099.31	0.645799
1102.68	0.596974
1106.05	0.136442
1109.43	0.529267
1112.8	0.493743
1116.18	0.387831
1119.55	0.482033
1122.93	0.536961
1126.3	0.484227
1129.68	0.698425
1133.05	1.09265
1136.43	0.984233
1139.8	0.581255
1143.18	0.067025
1146.55	0.050607
1149.93	0.20748
1153.3	0.226497
1156.68	0.479824
1160.05	0.303425
1163.43	0.077946
1166.8	0.221895
1170.18	0.270104
1173.55	0.309885
1176.93	0.749042
1180.3	0.0651
1183.67	0.292288
1187.05	0.009454
1190.42	0.453229
1193.8	0.583678
1197.17	0.590674
1200.55	0.822435
1203.92	0.300098
1207.3	0.003831
1210.67	0.195351
1214.05	0.432498
1217.42	0.669629
1220.8	0.53045
1224.17	0.117098
1227.55	0.671519
1230.92	0.308017
1234.3	0.314706
1237.67	1.31674
1241.05	0.630594
1244.42	0.395593
1247.8	0.185007
1251.17	0.788605
1254.55	0.161057
1257.92	0.35698
1261.3	0.470019
1264.67	0.604392
1268.05	0.80017
1271.42	0.759929
1274.8	0.403455
1278.17	0.769988
1281.55	0.178188
