Measurement: Raman, 532 nm, unoriented, Raman Data Processed
Mineral: Tin
Rruff sample: R060756
Ideal chemistry: Sn
Locality: Aberfoil river, near Oban, New South Wales, Australia
Source: Michael Scott
Description: Tin-white metallic water-worn grains
Measured chemistry: Sn
Raman shift (cm-1)	intensity
144.664	0
147.557	102.789
150.45	19.0591
153.342	24.7241
156.235	64.3716
159.128	12.5396
162.02	136.418
164.913	117.398
167.806	76.4688
170.699	51.749
173.591	63.4253
176.484	80.2856
179.377	134.101
182.269	180.974
185.162	162.83
188.055	215.371
190.947	230.379
193.84	327.174
196.733	275.382
199.626	362.225
202.518	402.332
205.411	545.678
208.304	578.03
211.196	550.968
214.089	494.707
216.982	401.949
219.874	349.834
222.767	328.334
225.66	277.293
228.553	264.062
231.445	255.652
234.338	197.778
237.231	208.273
240.123	165.31
243.016	177.054
245.909	151.949
248.801	139.335
251.694	121.861
254.587	79.7554
257.48	63.3911
260.372	61.1875
263.265	98.2241
266.158	83.1406
269.05	10.2344
271.943	46.0254
274.836	26.9561
277.728	44.1328
280.621	17.0215
283.514	48.2285
286.407	2.42383
289.299	77.2559
292.192	50.2554
295.085	31.0698
297.977	33.9116
300.87	21.7012
303.763	88.7896
306.655	78.6841
309.548	118.346
312.441	106.924
315.334	94.3657
318.226	46.2168
321.119	94.875
324.012	41.1372
326.904	91.0786
329.797	85.3867
332.69	90.0894
335.582	79.0596
338.475	40.8687
341.368	29.6221
344.261	69.9248
347.153	115.49
350.046	69.1294
352.939	72.5342
355.831	68.894
358.724	4.68848
361.617	6.8667
364.509	24.6025
367.402	27.7036
370.295	41.1016
373.188	56.373
376.08	18.4399
378.973	34.272
381.866	35.3589
384.758	13.5962
387.651	142.468
390.544	94.4282
393.436	15.9282
396.329	88.0684
399.222	50.4131
402.115	1.32178
405.007	58.5532
407.9	46.4829
410.793	44.5015
413.685	48.5337
416.578	51.9126
419.471	39.1133
422.363	8.02588
425.256	42.0698
428.149	35.8921
431.042	35.9165
433.934	50.9727
436.827	11.7998
439.72	22.2119
442.612	6.5957
445.505	6.60449
448.398	42.3569
451.29	69.7398
454.183	1.03076
457.076	41.9839
459.969	24.1162
462.861	40.0523
465.754	0.14502
468.647	20.4341
471.539	21.6489
474.432	5.80566
477.325	20.8335
480.217	0.030762
483.11	10.3901
486.003	31.5464
488.896	54.458
491.788	3.50537
494.681	16.3066
497.574	36.0156
500.466	16.5332
503.359	47.6372
506.252	39.3115
509.144	38.9287
512.037	22.6406
514.93	57.3662
517.823	91.3936
520.715	45.1968
523.608	44.3359
526.501	104.93
529.393	53.6567
532.286	89.3369
535.179	77.7065
538.071	51.8779
540.964	97.8101
543.857	131.988
546.75	136.573
549.642	102.085
552.535	93.9224
555.428	106.907
558.32	170.97
561.213	98.6856
564.106	171.802
566.998	164.848
569.891	166.254
572.784	144.349
575.677	161.907
578.569	112.457
581.462	165.232
584.355	109.504
587.247	152.544
590.14	171.593
593.033	117.075
595.925	144.809
598.818	152.843
601.711	126.702
604.604	83.0625
607.496	94.7134
610.389	80.7578
613.282	70.3452
616.174	107.33
619.067	85.356
621.96	114.74
624.852	134.443
627.745	110.559
630.638	32.4248
633.531	72.2998
636.423	66.9473
639.316	11.8984
642.209	51.1191
645.101	50.8652
647.994	75.0557
650.887	40.918
653.779	56.3691
656.672	26.6099
659.565	15.3794
662.458	15.2427
665.35	33.0986
668.243	47.4712
671.136	43.645
674.028	13.8843
676.921	0.803223
679.814	31.04
682.706	11.375
685.599	34.0649
688.492	15.3584
691.385	14.9898
694.277	66.2627
697.17	33.9321
700.063	4.82373
702.955	21.7725
705.848	32.6196
708.741	24.4043
711.633	44.4477
714.526	1.99219
717.419	14.5767
720.311	91.001
723.204	53.3691
726.097	53.832
728.99	11.8911
731.882	40.2617
734.775	16.2734
737.668	29.8296
740.56	53.2617
743.453	53.396
746.346	115.697
749.238	102.697
752.131	73.106
755.024	82.5195
757.917	51.6001
760.809	43.4575
763.702	10.1206
766.595	34.8486
769.487	87.1997
772.38	105.389
775.273	41.0444
778.165	30.7441
781.058	99.8628
783.951	55.3882
786.844	12.0727
789.736	82.6143
792.629	110.686
795.522	83.8828
798.414	29.1084
801.307	42.6816
804.2	21.5122
807.092	1.72119
809.985	41.022
812.878	25.2305
815.771	26.2358
818.663	2.60205
821.556	76.8916
824.449	16.373
827.341	31.1191
830.234	82.5786
833.127	63.2676
836.019	11.457
838.912	123.905
841.805	54.4155
844.698	38.793
847.59	20.6489
850.483	58.5337
853.376	64.8701
856.268	60.812
859.161	80.1372
862.054	85.9512
864.946	68.46
867.839	138.875
870.732	9.30566
873.625	52.3071
876.517	84.5303
879.41	49.7725
882.303	69.2134
885.195	76.8843
888.088	103.087
890.981	93.9678
893.873	111.066
896.766	73.4243
899.659	57.022
902.552	71.2305
905.444	58.1992
908.337	58.8467
911.23	60.6992
914.122	10.6953
917.015	9.24365
919.908	55.7036
922.8	67.6103
925.693	96.7788
928.586	75.7285
931.479	78.8481
934.371	86.4292
937.264	57.8638
940.157	62.7295
943.049	16.9121
945.942	35.8975
948.835	35.8447
951.727	20.8242
954.62	29.2754
957.513	65.4487
960.406	3.64014
963.298	32.544
966.191	21.4795
969.084	21.2656
971.976	32.1636
974.869	11.1606
977.762	23.623
980.654	32.2563
983.547	49.3227
986.44	49.2441
989.333	28.9692
992.225	35.2295
995.118	48.4541
998.011	51.377
1000.9	18.2866
1003.8	72.8979
1006.69	3.96191
1009.58	25.3189
1012.47	39.7773
1015.37	67.3159
1018.26	7.96143
1021.15	31.4126
1024.05	96.5283
1026.94	97.3618
1029.83	64.1226
1032.72	38.7065
1035.62	37.2114
1038.51	101.402
1041.4	90.2876
1044.29	63.0928
1047.19	50.6807
1050.08	44.3384
1052.97	91.9917
1055.87	105.497
1058.76	39.4131
1061.65	93.4209
1064.54	34.6504
1067.43	60.2446
1070.33	58.8926
1073.22	53.7144
1076.11	67.6572
1079.01	40.2935
1081.9	38.1728
1084.79	72.7012
1087.68	55.6719
1090.58	38.0938
1093.47	85.8765
1096.36	58.959
1099.26	86.6309
1102.15	58.0659
1105.04	35.4033
1107.93	83.3481
1110.83	43.3062
1113.72	68.2764
1116.61	56.3149
1119.5	3.49756
1122.4	11.0806
1125.29	64.1226
1128.18	63.6914
1131.08	56.5718
1133.97	105.578
1136.86	9.46435
1139.75	49.1885
1142.65	70.2969
1145.54	47.5523
1148.43	4.57129
1151.32	22.6577
1154.22	31.8257
1157.11	68.6191
1160	63.7398
1162.89	48.9927
1165.79	24.2246
1168.68	12.9287
1171.57	71.1982
1174.46	80.9546
1177.36	17.4141
1180.25	20.2358
1183.14	105.439
1186.04	38.8193
1188.93	72.3018
1191.82	9.99756
1194.71	59.3032
1197.61	88.457
1200.5	141.912
1203.39	45.3906
1206.29	67.6743
1209.18	55.5322
1212.07	83.0322
1214.96	73.1397
1217.86	40.4863
1220.75	45.4697
1223.64	49.5889
1226.53	51.373
1229.43	56.4648
1232.32	33.2515
1235.21	92.8867
1238.1	58.2935
1241	43.8901
1243.89	56.6382
1246.78	72.6489
1249.67	100.633
1252.57	96.8013
1255.46	36.9175
1258.35	96.0361
1261.25	44.8267
1264.14	8.32422
1267.03	123.982
1269.92	17.0649
1272.82	106.339
1275.71	60.9263
1278.6	9.77685
1281.49	5.38525
1284.39	16.3462
