Measurement: Raman, 532 nm, unoriented, Raman Data Processed
Mineral: Tinsleyite
Rruff sample: R070706
Ideal chemistry: KAl_2_(PO_4_)_2_(OH)2H_2_O
Locality: Tip Top mine, Fourmile, Custer District, Custer County, South Dakota, USA
Source: Michael Scott
Description: Pinkish red prismatic crystal fragment
Raman shift (cm-1)	intensity
157.166	0
160.059	10.3411
162.952	87.2783
165.844	55.0614
168.737	63.0355
171.63	136.534
174.522	104.218
177.415	146.951
180.308	188.48
183.201	105.179
186.093	90.7717
188.986	22.5476
191.879	20.9644
194.771	2.54614
197.664	43.5073
200.557	57.5293
203.449	77.8455
206.342	62.0964
209.235	34.4518
212.127	44.8619
215.02	43.0259
217.913	11.354
220.806	37.7701
223.698	26.2778
226.591	9.76209
229.484	65.2197
232.376	24.1804
235.269	5.99854
238.162	29.7999
241.054	31.423
243.947	32.1464
246.84	31.5828
249.732	25.5333
252.625	42.8964
255.518	0.921143
258.411	46.1222
261.303	12.3861
264.196	52.8147
267.089	113.715
269.981	92.9469
272.874	127.341
275.767	141.25
278.659	112.069
281.552	144.596
284.445	195.76
287.338	201.386
290.23	259.037
293.123	262.072
296.016	243.037
298.908	255.534
301.801	300.995
304.694	251.471
307.587	292.897
310.479	270.545
313.372	231.979
316.265	228.59
319.157	238.507
322.05	189.774
324.943	179.247
327.835	133.906
330.728	111.633
333.621	78.0791
336.514	64.8558
339.406	43.0339
342.299	74.2269
345.192	67.0187
348.084	53.7458
350.977	26.682
353.87	80.9447
356.762	71.3922
359.655	83.0205
362.548	81.174
365.44	109.741
368.333	63.1668
371.226	71.017
374.119	52.4038
377.011	36.1118
379.904	12.077
382.797	3.17017
385.689	33.6719
388.582	24.5324
391.475	50.589
394.368	13.4161
397.26	14.0931
400.153	2.07861
403.046	25.3986
405.938	62.3669
408.831	116.952
411.724	89.4525
414.616	118.866
417.509	114.776
420.402	152.763
423.295	189.622
426.187	208.817
429.08	233.324
431.973	278.882
434.865	333.072
437.758	429.334
440.651	471.724
443.543	516.924
446.436	586.778
449.329	597.096
452.221	685.616
455.114	691.897
458.007	681.871
460.9	669.663
463.792	614.64
466.685	559.611
469.578	537.063
472.47	485.623
475.363	502.416
478.256	462.967
481.149	437.198
484.041	445.083
486.934	390.892
489.827	359.895
492.719	290.499
495.612	331.349
498.505	344.191
501.397	374.474
504.29	344.182
507.183	386.409
510.075	424.018
512.968	366.445
515.861	378.192
518.754	337.605
521.646	319.947
524.539	267.671
527.432	225.226
530.324	180.661
533.217	133.006
536.11	133.842
539.002	97.2139
541.895	68.7315
544.788	29.1912
547.681	1.18286
550.573	18.5707
553.466	20.9445
556.359	40.8577
559.251	6.0766
562.144	13.1128
565.037	43.5382
567.929	114.622
570.822	62.55
573.715	111.826
576.607	127.486
579.5	94.3524
582.393	74.2963
585.286	121.91
588.178	82.0678
591.071	64.6597
593.964	93.4393
596.856	104.217
599.749	146.894
602.642	170.25
605.534	206.797
608.427	250.81
611.32	242.304
614.213	241.503
617.105	259.836
619.998	300.436
622.891	354.187
625.783	362.959
628.676	389.222
631.569	423.376
634.462	525.305
637.354	577.324
640.247	663.906
643.14	721.128
646.032	775.307
648.925	804.674
651.818	765.97
654.71	765.004
657.603	697.043
660.496	596.376
663.389	586.793
666.281	477.725
669.174	436.953
672.067	335.908
674.959	265.77
677.852	182.453
680.745	129.708
683.637	130.334
686.53	10.3734
689.423	41.7543
692.316	11.0827
695.208	14.6613
698.101	16.1191
700.994	0.477814
703.886	12.2291
706.779	10.5604
709.672	12.9337
712.564	8.14792
715.457	5.22006
718.35	17.2604
721.242	23.4727
724.135	35.164
727.028	17.3276
729.921	6.2785
732.813	3.37558
735.706	34.797
738.599	17.4514
741.491	21.1867
744.384	11.2362
747.277	34.9196
750.169	13.1009
753.062	39.5664
755.955	23.5636
758.848	43.2015
761.74	14.684
764.633	31.1848
767.526	41.8452
770.418	19.2227
773.311	30.7323
776.204	18.8644
779.096	16.8431
781.989	22.7272
784.882	36.8221
787.775	62.0256
790.667	48.6729
793.56	2.62402
796.453	50.7012
799.345	14.0351
802.238	49.9727
805.131	22.7791
808.024	53.6958
810.916	50.1945
813.809	52.7201
816.702	61.236
819.594	45.2359
822.487	62.9683
825.38	71.1255
828.272	52.7478
831.165	57.8091
834.058	74.3995
836.95	53.1803
839.843	61.0073
842.736	59.1708
845.629	69.8355
848.521	45.7602
851.414	61.7515
854.307	42.2559
857.199	84.9956
860.092	36.1488
862.985	37.0656
865.877	52.0656
868.77	27.8731
871.663	31.3902
874.556	34.5603
877.448	70.4349
880.341	55.8652
883.234	51.4041
886.126	45.8824
889.019	64.7187
891.912	34.071
894.804	39.6396
897.697	21.7333
900.59	41.9122
903.482	29.0826
906.375	34.3526
909.268	17.6733
912.161	23.554
915.053	10.9886
917.946	17.8661
920.839	32.864
923.731	5.81567
926.624	14.4099
929.517	11.6014
932.409	11.4749
935.302	15.0819
938.195	10.0781
941.088	10.4733
943.98	16.5574
946.873	6.53302
949.766	22.7598
952.658	2.80017
955.551	9.03766
958.444	23.557
961.337	22.9139
964.229	99.7592
967.122	129.722
970.015	197.57
972.907	253.723
975.8	328.938
978.693	434.255
981.585	485.572
984.478	524.109
987.371	577.966
990.264	587.886
993.156	656.827
996.049	693.495
998.942	715.364
1001.83	778.38
1004.73	733.774
1007.62	731.306
1010.51	686.5
1013.4	640.111
1016.3	590.239
1019.19	588.18
1022.08	547.905
1024.98	522.29
1027.87	485.644
1030.76	458.468
1033.65	432.3
1036.55	405.979
1039.44	417.825
1042.33	415.18
1045.22	439.365
1048.12	445.226
1051.01	407.033
1053.9	410.915
1056.8	437.363
1059.69	395.181
1062.58	364.604
1065.47	327.207
1068.37	258.607
1071.26	205.78
1074.15	154.293
1077.04	130.897
1079.94	76.5508
1082.83	111.751
1085.72	51.9589
1088.62	58.1106
1091.51	50.3426
1094.4	67.4594
1097.29	67.746
1100.19	60.0157
1103.08	24.6973
1105.97	18.5597
1108.86	15.3908
1111.76	7.22668
1114.65	3.11292
1117.54	0.666016
1120.43	6.15216
1123.33	17.0223
1126.22	6.9527
1129.11	22.9562
1132.01	10.6153
1134.9	20.0469
1137.79	4.82416
1140.68	12.9444
1143.58	8.90271
1146.47	2.32666
1149.36	3.5531
1152.26	2.33801
1155.15	17.3841
1158.04	26.1494
1160.93	36.2779
1163.83	69.2684
1166.72	58.7063
1169.61	66.1075
1172.5	84.352
1175.4	115.228
1178.29	125.946
1181.18	93.1634
1184.07	118.683
1186.97	103.247
1189.86	107.947
1192.75	91.7732
1195.64	123.032
1198.54	116.158
1201.43	160.088
1204.32	159.636
1207.22	164.348
1210.11	175.184
1213	180.784
1215.89	170.32
1218.79	115.522
1221.68	94.3024
1224.57	52.7676
1227.46	59.1136
1230.36	22.6489
1233.25	27.1831
1236.14	14.6469
1239.04	19.4876
1241.93	5.11703
1244.82	13.7841
1247.71	1.48618
1250.61	5.12149
1253.5	17.1981
1256.39	32.9474
1259.29	39.6406
1262.18	40.1593
1265.07	40.3358
1267.96	32.3027
1270.86	60.0207
1273.75	40.1976
1276.64	13.8623
1279.53	7.3667
1282.43	35.7796
1285.32	42.0637
1288.21	29.7329
1291.1	19.4471
1294	0
