Measurement: Raman, 532 nm, unoriented, Raman Data Processed
Mineral: Tinticite
Rruff sample: R070682
Ideal chemistry: Fe^3+^_3_(PO_4_)_2_(OH)_3_3H_2_O
Locality: Tintic Standard mine, East Tintic District, East Tintic Mountainsts, Utah County, Utah, USA
Source: Michael Scott
Description: Clay-like white fine-grained massive, associated with jarosite, from type find
Measured chemistry: (Fe^3+^_5.06_Al_0.04_)_Σ=5.09_((P_0.825_S_0.175_)_Σ=1_O_4_)_4_(OH)_4_·6.96H_2_O; OH estimated by charge balance; H_2_O by difference
Raman shift (cm-1)	intensity
184.165	0
187.057	30.5768
189.95	25.5765
192.843	36.3057
195.736	30.17
198.628	31.065
201.521	61.3957
204.414	83.7319
207.306	100.797
210.199	79.7332
213.092	97.1592
215.984	82.8845
218.877	41.5885
221.77	20.7764
224.662	25.8171
227.555	23.2462
230.448	15.2473
233.341	10.916
236.233	15.5662
239.126	23.0666
242.019	25.262
244.911	32.4572
247.804	38.3585
250.697	51.2722
253.589	52.5471
256.482	77.0911
259.375	86.3668
262.268	92.66
265.16	85.1757
268.053	57.0109
270.946	68.4064
273.838	52.83
276.731	61.7513
279.624	17.5579
282.517	45.796
285.409	44.3241
288.302	6.74908
291.195	28.2432
294.087	10.633
296.98	12.7492
299.873	6.23395
302.765	3.00531
305.658	1.86054
308.551	1.43603
311.443	5.59668
314.336	34.4913
317.229	20.8662
320.122	25.051
323.014	37.3964
325.907	62.8162
328.8	61.6053
331.692	56.8845
334.585	87.851
337.478	94.7155
340.37	90.3187
343.263	69.0018
346.156	88.1249
349.049	71.4004
351.941	51.0559
354.834	32.7816
357.727	26.6614
360.619	52.5376
363.512	26.2251
366.405	41.5314
369.298	21.6382
372.19	41.0621
375.083	37.8514
377.976	17.546
380.868	29.5789
383.761	5.18347
386.654	5.9408
389.546	27.4978
392.439	14.2597
395.332	6.56818
398.224	2.77258
401.117	16.5446
404.01	3.92383
406.902	16.3588
409.795	29.8692
412.688	0.959717
415.581	35.2469
418.473	62.6888
421.366	31.5895
424.259	60.2066
427.151	59.3643
430.044	77.7459
432.937	92.7402
435.829	80.4355
438.722	83.3156
441.615	61.1755
444.508	41.121
447.4	44.7187
450.293	38.8463
453.186	51.1984
456.078	37.706
458.971	2.04004
461.864	15.5808
464.757	15.2194
467.649	8.27832
470.542	14.987
473.435	54.1444
476.327	56.4012
479.22	64.7844
482.113	89.9779
485.005	101.039
487.898	61.8266
490.791	50.8121
493.683	73.9004
496.576	98.7435
499.469	81.8776
502.362	71.5783
505.254	66.9265
508.147	78.5846
511.04	42.77
513.932	38.717
516.825	32.6053
519.718	23.48
522.611	19.6415
525.503	33.2726
528.396	20.376
531.289	4.62671
534.181	32.0744
537.074	9.24442
539.967	43.1092
542.859	2.20441
545.752	13.5124
548.645	15.0045
551.538	11.1863
554.43	12.8258
557.323	18.138
560.216	30.2407
563.108	32.4787
566.001	12.5419
568.894	16.2579
571.786	0.319092
574.679	29.1765
577.572	44.6421
580.465	7.66504
583.357	14.1222
586.25	25.1214
589.143	26.5666
592.035	23.929
594.928	6.07816
597.821	34.6883
600.713	24.7292
603.606	14.1724
606.499	27.6403
609.391	1.83438
612.284	3.29596
615.177	40.8821
618.07	32.3601
620.962	28.4292
623.855	27.1321
626.748	21.8186
629.64	18.4896
632.533	26.6507
635.426	29.5848
638.318	31.5164
641.211	46.3048
644.104	28.2575
646.997	33.9973
649.889	9.33289
652.782	29.1528
655.675	19.0126
658.567	18.6035
661.46	21.3036
664.353	28.9839
667.245	17.5449
670.138	42.3667
673.031	2.74521
675.923	36.5068
678.816	23.2102
681.709	7.46823
684.602	14.4397
687.494	18.3628
690.387	9.14679
693.28	12.9973
696.172	3.41013
699.065	40.8566
701.958	21.4309
704.851	4.97907
707.743	13.7183
710.636	7.08087
713.529	12.7256
716.421	12.4136
719.314	4.66007
722.207	47.5255
725.099	9.54486
727.992	14.1097
730.885	36.9311
733.778	15.5166
736.67	23.522
739.563	22.8971
742.456	23.7104
745.348	45.8099
748.241	20.3912
751.134	13.4178
754.026	50.7098
756.919	32.6066
759.812	18.7454
762.705	28.1881
765.597	25.6956
768.49	37.8089
771.383	26.8354
774.275	26.2444
777.168	7.62595
780.061	33.4437
782.953	7.50259
785.846	3.50156
788.739	13.7888
791.631	17.0731
794.524	23.0125
797.417	5.18683
800.31	31.8017
803.202	6.00507
806.095	2.33945
808.988	4.89493
811.88	23.7775
814.773	18.8369
817.666	25.9925
820.558	18.6205
823.451	21.942
826.344	25.0116
829.237	3.92395
832.129	18.7003
835.022	33.7065
837.915	18.6967
840.807	47.5427
843.7	30.9296
846.593	29.3009
849.486	38.3778
852.378	17.0375
855.271	12.5354
858.164	32.5243
861.056	37.4585
863.949	6.12222
866.842	15.1098
869.734	8.63269
872.627	15.9993
875.52	36.5982
878.413	26.7487
881.305	27.3871
884.198	31.2951
887.091	35.1765
889.983	8.3169
892.876	30.3563
895.769	5.27777
898.661	1.81824
901.554	21.6393
904.447	33.5715
907.34	24.7326
910.232	4.86252
913.125	11.2551
916.018	7.30197
918.91	34.4337
921.803	20.8358
924.696	8.12265
927.588	8.44971
930.481	19.1412
933.374	11.4766
936.266	17.65
939.159	18.7353
942.052	17.1097
944.945	29.7005
947.837	7.84598
950.73	7.20209
953.623	16.9672
956.515	7.44516
959.408	0.410919
962.301	9.06668
965.193	16.4165
968.086	25.75
970.979	34.4482
973.872	19.1514
976.764	43.5916
979.657	56.3843
982.55	98.6319
985.442	113.763
988.335	116.763
991.228	123.002
994.12	131.486
997.013	126.78
999.906	146.217
1002.8	114.824
1005.69	121.428
1008.58	108.203
1011.48	94.3728
1014.37	100.793
1017.26	131.005
1020.15	117.047
1023.05	127.193
1025.94	111.636
1028.83	103.544
1031.73	73.0026
1034.62	55.2705
1037.51	43.3882
1040.4	52.3857
1043.3	50.3907
1046.19	32.5248
1049.08	19.9666
1051.97	46.5173
1054.87	42.6819
1057.76	22.9008
1060.65	20.113
1063.55	22.8851
1066.44	1.59424
1069.33	11.5784
1072.22	3.70822
1075.12	10.4552
1078.01	18.1343
1080.9	17.3078
1083.79	2.59262
1086.69	34.0316
1089.58	38.5316
1092.47	67.6258
1095.37	26.7288
1098.26	62.9497
1101.15	34.2361
1104.04	48.3794
1106.94	46.1991
1109.83	52.7276
1112.72	30.0399
1115.61	21.0677
1118.51	30.0941
1121.4	6.39945
1124.29	8.45547
1127.18	10.6731
1130.08	8.55786
1132.97	12.1799
1135.86	10.539
1138.76	4.33975
1141.65	19.2582
1144.54	6.39627
1147.43	5.72003
1150.33	4.83157
1153.22	14.3322
1156.11	18.8808
1159	29.9062
1161.9	10.8909
1164.79	11.4709
1167.68	7.99512
1170.58	44.3832
1173.47	2.09308
1176.36	7.51639
1179.25	30.252
1182.15	30.8631
1185.04	23.3853
1187.93	11.7242
1190.82	12.7215
1193.72	23.1541
1196.61	32.5028
1199.5	16.0083
1202.39	35.3033
1205.29	23.0545
1208.18	34.2121
1211.07	33.1949
1213.97	14.236
1216.86	19.8414
1219.75	2.56226
1222.64	7.71701
1225.54	30.7622
1228.43	51.3014
1231.32	31.738
1234.21	26.144
1237.11	36.3566
1240	25.9473
1242.89	21.7244
1245.79	29.2914
1248.68	15.8269
1251.57	45.3349
1254.46	20.2297
1257.36	54.6098
1260.25	29.4599
1263.14	39.5014
1266.03	46.0345
1268.93	27.8358
1271.82	36.919
1274.71	9.19202
1277.61	21.807
1280.5	32.9246
1283.39	23.6199
1286.28	11.6513
1289.18	22.8249
1292.07	1.19519
1294.96	4.47162
1297.85	0
