Measurement: Raman, 532 nm, unoriented, Raman Data Processed
Mineral: Tintinaite
Rruff sample: R110046
Ideal chemistry: Pb^2+^_10_Cu^1+^_2_Sb^3+^_16_S^2-^_35_
Locality: Deer Park mine, Rossland, British Columbia, Canada
Source: Royal Ontario Museum
Description: Parallel aggregates of lead-gray bladed crystals associated with quartz, pyrite, magnetite, and tetrahedrite. Co-type sample
Measured chemistry: Pb_10.54_(Cu_1.24_Ag_0.28_)_Σ=1.52_(Sb_7.98_Bi_7.75_)_Σ=15.73_S_35_
Raman shift (cm-1)	intensity
177.755	0
180.648	3.73383
183.541	5.32129
186.433	0.139671
189.326	0.312126
192.219	1.08644
195.112	5.28209
198.004	5.68041
200.897	7.12284
203.79	0.741776
206.682	1.78379
209.575	2.96107
212.468	1.55154
215.36	2.37397
218.253	3.43262
221.146	4.21533
224.038	10.3329
226.931	5.6197
229.824	7.13084
232.717	8.86135
235.609	9.43932
238.502	10.3985
241.395	11.3997
244.287	11.7638
247.18	12.0393
250.073	11.9239
252.965	14.5454
255.858	16.189
258.751	13.9122
261.644	16.4605
264.536	11.8681
267.429	13.0829
270.322	14.8288
273.214	12.0969
276.107	11.8486
279	12.455
281.892	8.33443
284.785	4.36422
287.678	4.48006
290.571	5.04846
293.463	5.24515
296.356	3.87543
299.249	8.25851
302.141	5.21548
305.034	10.0342
307.927	11.3693
310.82	15.341
313.712	12.8202
316.605	12.3862
319.498	15.7332
322.39	18.822
325.283	20.0014
328.176	18.5001
331.068	18.6029
333.961	12.5557
336.854	5.75063
339.747	3.52634
342.639	1.98586
345.532	0.179647
348.425	1.53097
351.317	1.48663
354.21	1.20156
357.103	0.008118
359.995	1.47151
362.888	2.6568
365.781	0.399868
368.673	0.44783
371.566	2.40703
374.459	2.88616
377.352	2.96367
380.244	0.779909
383.137	0.820635
386.03	5.11968
388.922	3.33102
391.815	5.77705
394.708	2.82062
397.601	6.61745
400.493	4.22979
403.386	5.3345
406.279	4.33762
409.171	4.09586
412.064	2.44637
414.957	3.93887
417.849	0.77479
420.742	3.50178
423.635	4.59032
426.527	1.33101
429.42	2.25445
432.313	3.39692
435.206	2.76774
438.098	3.47349
440.991	4.06093
443.884	4.21333
446.776	2.1739
449.669	2.14602
452.562	0.252578
455.454	0.278266
458.347	1.61254
461.24	1.26542
464.133	0.492362
467.025	3.18017
469.918	0.470962
472.811	1.8218
475.703	0.115436
478.596	2.59583
481.489	0.064703
484.382	0.647094
487.274	1.52488
490.167	1.17404
493.06	2.15222
495.952	1.4505
498.845	1.59529
501.738	0.885119
504.63	0.80709
507.523	2.80407
510.416	0.950909
513.308	1.88871
516.201	0.775186
519.094	2.23501
521.987	2.45187
524.879	2.51299
527.772	0.321218
530.665	2.2608
533.557	1.60691
536.45	1.91084
539.343	0.907813
542.236	2.63364
545.128	1.63278
548.021	1.65549
550.914	1.43191
553.806	1.49188
556.699	1.53015
559.592	2.20147
562.484	1.98339
565.377	3.24199
568.27	3.65905
571.163	2.06276
574.055	3.18801
576.948	0.372725
579.841	1.27273
582.733	2.10252
585.626	1.61707
588.519	0.413714
591.411	1.72559
594.304	2.20422
597.197	1.28931
600.09	0.71031
602.982	0.040887
605.875	1.18602
608.768	2.53768
611.66	1.32256
614.553	2.15492
617.446	1.93083
620.338	0.813863
623.231	1.96547
626.124	1.43517
629.016	0.492771
631.909	0.585742
634.802	3.09553
637.695	1.48169
640.587	1.34004
643.48	2.81683
646.373	1.74573
649.265	2.02357
652.158	0.987705
655.051	1.40354
657.943	1.12011
660.836	1.72829
663.729	1.81486
666.622	3.19368
669.514	4.3602
672.407	1.98439
675.3	2.16413
678.192	2.07648
681.085	0.970485
683.978	0.243992
686.87	2.31377
689.763	2.8233
692.656	1.21185
695.549	0.261869
698.441	4.0218
701.334	1.95216
704.227	0.770508
707.119	3.60684
710.012	1.29899
712.905	1.53907
715.798	3.61538
718.69	1.99401
721.583	0.024013
724.476	1.30434
727.368	1.90501
730.261	3.24105
733.154	2.79344
736.046	0.042739
738.939	0.350778
741.832	3.28776
744.725	2.23278
747.617	2.03709
750.51	0.604313
753.403	0.178729
756.295	2.38386
759.188	1.60346
762.081	3.16827
764.973	4.58084
767.866	1.86025
770.759	1.24872
773.652	0.702714
776.544	2.52148
779.437	0.853598
782.33	0.898372
785.222	2.14391
788.115	2.65572
791.008	3.66343
793.9	2.67168
796.793	2.1302
799.686	0.866405
802.578	0.971853
805.471	0.594728
808.364	2.09864
811.257	3.05752
814.149	3.34943
817.042	3.10805
819.935	2.87834
822.827	0.924849
825.72	0.688619
828.613	4.19776
831.505	3.0386
834.398	0.3364
837.291	0.7827
840.184	0.453847
843.076	0.737667
845.969	0.535037
848.862	0.780392
851.754	3.28313
854.647	3.05335
857.54	2.84986
860.433	2.11875
863.325	3.99286
866.218	1.63689
869.111	1.94946
872.003	1.54479
874.896	2.73688
877.789	2.04507
880.681	0.117994
883.574	0.801685
886.467	0.692893
889.36	3.06962
892.252	2.97732
895.145	1.94776
898.038	1.88093
900.93	2.53229
903.823	0.653188
906.716	1.45893
909.608	0.08324
912.501	1.33739
915.394	1.29007
918.287	1.30698
921.179	2.16776
924.072	1.35426
926.965	3.26144
929.857	1.87668
932.75	1.27704
935.643	1.34032
938.535	2.23412
941.428	2.95153
944.321	0.709361
947.213	1.30545
950.106	1.58941
952.999	1.57305
955.892	3.27556
958.784	2.97168
961.677	1.53587
964.57	2.77518
967.462	1.29443
970.355	0.612762
973.248	0.125635
976.14	0.672308
979.033	3.29216
981.926	1.92434
984.819	0.536693
987.711	3.24492
990.604	1.68614
993.497	3.14114
996.389	0.373784
999.282	0.93383
1002.17	1.42223
1005.07	2.20115
1007.96	2.66692
1010.85	1.04441
1013.75	0.899014
1016.64	0.010899
1019.53	1.26073
1022.42	0.825391
1025.32	2.24667
1028.21	3.38053
1031.1	2.05252
1033.99	2.16208
1036.89	1.572
1039.78	0.81807
1042.67	1.29319
1045.57	0.935862
1048.46	1.31809
1051.35	2.66145
1054.24	2.33172
1057.14	2.27915
1060.03	2.57471
1062.92	3.32979
1065.81	2.21081
1068.71	0.750075
1071.6	2.38752
1074.49	1.36542
1077.38	3.63522
1080.28	0.436862
1083.17	1.50109
1086.06	1.85066
1088.96	1.26297
1091.85	5.41018
1094.74	1.73893
1097.63	1.96273
1100.53	1.6182
1103.42	3.58332
1106.31	3.14113
1109.2	1.89102
1112.1	1.11865
1114.99	2.33967
1117.88	2.20539
1120.78	3.34987
1123.67	1.57146
1126.56	4.54634
1129.45	2.85557
1132.35	2.72973
1135.24	1.81757
1138.13	1.67958
1141.02	1.53129
1143.92	1.53131
1146.81	0.870449
1149.7	0.638541
1152.6	1.37618
1155.49	1.56555
1158.38	2.65676
1161.27	2.77823
1164.17	2.75445
1167.06	3.51797
1169.95	2.17869
1172.84	2.80029
1175.74	1.44534
1178.63	1.56004
1181.52	1.35062
1184.41	1.13402
1187.31	2.22034
1190.2	2.09552
1193.09	2.50433
1195.99	1.38664
1198.88	2.73537
1201.77	2.07217
1204.66	2.87521
1207.56	2.24084
1210.45	3.2005
1213.34	2.46956
1216.23	2.0471
1219.13	1.36179
1222.02	0.433424
1224.91	1.38343
1227.81	1.09583
1230.7	0.252301
1233.59	2.08518
1236.48	1.78856
1239.38	1.92638
1242.27	2.64528
1245.16	1.78168
1248.05	2.23699
1250.95	1.59895
1253.84	3.19038
1256.73	3.40534
1259.62	1.1249
1262.52	2.55943
1265.41	3.38884
1268.3	0.084118
1271.2	3.45345
1274.09	1.73182
1276.98	1.67136
1279.87	2.75766
1282.77	0.402852
1285.66	3.72636
1288.55	0.050489
1291.44	1.81392
1294.34	1.91992
1297.23	1.23812
1300.12	0.001285
1303.02	0
