Measurement: Raman, 780 nm, unoriented, Raman Data Processed
Mineral: Tinticite
Rruff sample: R070682
Ideal chemistry: Fe^3+^_3_(PO_4_)_2_(OH)_3_3H_2_O
Locality: Tintic Standard mine, East Tintic District, East Tintic Mountainsts, Utah County, Utah, USA
Source: Michael Scott
Description: Clay-like white fine-grained massive, associated with jarosite, from type find
Measured chemistry: (Fe^3+^_5.06_Al_0.04_)_Σ=5.09_((P_0.825_S_0.175_)_Σ=1_O_4_)_4_(OH)_4_·6.96H_2_O; OH estimated by charge balance; H_2_O by difference
Raman shift (cm-1)	intensity
192.768	0
195.66	1.40747
198.553	99.2236
201.446	148.516
204.339	166.89
207.231	189.572
210.124	223.508
213.017	211.344
215.909	124.226
218.802	58.9661
221.695	11.0461
224.587	17.4099
227.48	46.8784
230.373	155.971
233.266	283.158
236.158	494.487
239.051	590.765
241.944	569.202
244.836	502.858
247.729	494.16
250.622	489.143
253.514	433.586
256.407	475.705
259.3	403.857
262.193	272.546
265.085	172.63
267.978	96.8319
270.871	58.3517
273.763	3.30823
276.656	32.3978
279.549	26.1327
282.442	15.1883
285.334	28.4044
288.227	42.9136
291.12	56.6645
294.012	107.402
296.905	115.174
299.798	152.97
302.69	186.675
305.583	252.113
308.476	298.547
311.368	355.574
314.261	481.49
317.154	620.907
320.047	745.411
322.939	892.622
325.832	969.073
328.725	1090.85
331.617	1188.24
334.51	1232.27
337.403	1203.78
340.296	1194.2
343.188	1177.4
346.081	1079.43
348.974	923.18
351.866	748.952
354.759	572.025
357.652	452.209
360.544	383.733
363.437	282.973
366.33	257.773
369.223	179.08
372.115	200.937
375.008	185.273
377.901	151.01
380.793	144.369
383.686	109.075
386.579	89.3962
389.471	38.1208
392.364	61.5155
395.257	13.8739
398.149	3.03345
401.042	45.7482
403.935	18.8202
406.828	6.77954
409.72	73.0666
412.613	114.064
415.506	202.901
418.398	358.693
421.291	515.765
424.184	651.877
427.077	798.606
429.969	929.158
432.862	988.584
435.755	974.308
438.647	916.489
441.54	807.548
444.433	719.811
447.325	536.71
450.218	436.573
453.111	310.32
456.003	209.032
458.896	163.481
461.789	129.314
464.682	80.8414
467.574	39.5787
470.467	54.6708
473.36	24.542
476.252	31.485
479.145	66.9877
482.038	53.5841
484.931	64.4407
487.823	73.583
490.716	89.5874
493.609	38.6005
496.501	67.656
499.394	52.5499
502.287	91.4714
505.18	143.171
508.072	107.265
510.965	86.0173
513.858	99.4946
516.75	102.762
519.643	87.5215
522.536	67.1278
525.428	74.9576
528.321	76.9438
531.214	76.3482
534.106	125.362
536.999	117.3
539.892	132.422
542.785	128.313
545.677	76.1749
548.57	93.2067
551.463	71.2198
554.355	47.8992
557.248	90.8432
560.141	146.843
563.034	161.22
565.926	154.231
568.819	143.955
571.712	58.1422
574.604	24.2524
577.497	31.4062
580.39	12.203
583.282	23.4031
586.175	2.01294
589.068	8.65161
591.961	17.826
594.853	34.7661
597.746	42.0742
600.639	53.7592
603.531	86.0949
606.424	129.242
609.317	142.759
612.209	136.619
615.102	134.286
617.995	146.737
620.888	117.401
623.78	122.397
626.673	124.644
629.566	85.4101
632.458	105.286
635.351	99.1691
638.244	65.28
641.136	65.6395
644.029	41.1878
646.922	42.1192
649.814	34.3964
652.707	8.17581
655.6	20.0524
658.493	30.4517
661.385	0.834381
664.278	17.8581
667.171	6.20227
670.063	11.9079
672.956	25.1489
675.849	20.6646
678.742	13.032
681.634	27.6203
684.527	1.99381
687.42	16.1593
690.312	14.3082
693.205	21.7481
696.098	24.2971
698.99	13.0383
701.883	16.199
704.776	29.148
707.669	27.8226
710.561	35.0351
713.454	20.2307
716.347	16.8075
719.239	20.64
722.132	25.8264
725.025	12.2124
727.918	10.2734
730.81	7.61896
733.703	33.5814
736.596	3.02197
739.488	26.3138
742.381	16.778
745.274	35.4823
748.166	11.2199
751.059	20.728
753.952	29.1625
756.845	25.3151
759.737	13.0551
762.63	18.6898
765.523	15.6894
768.415	22.2973
771.308	25.8348
774.201	26.9827
777.093	13.4864
779.986	9.38858
782.879	3.8537
785.771	1.63986
788.664	10.2321
791.557	7.22046
794.45	8.97199
797.342	11.611
800.235	27.2483
803.128	27.613
806.02	7.5314
808.913	12.2986
811.806	17.1407
814.698	3.37811
817.591	32.3185
820.484	22.8442
823.377	29.8815
826.269	22.178
829.162	37.886
832.055	29.5256
834.947	41.4171
837.84	13.3098
840.733	51.9341
843.625	41.6755
846.518	37.0969
849.411	43.6251
852.304	23.6299
855.196	23.3385
858.089	12.7585
860.982	34.2019
863.875	15.4904
866.767	33.3477
869.66	32.0996
872.553	6.83328
875.445	1.77594
878.338	21.8098
881.231	1.08691
884.123	21.7684
887.016	4.6727
889.909	22.0732
892.802	12.9992
895.694	29.7277
898.587	38.7525
901.48	71.6201
904.372	76.5244
907.265	91.7652
910.158	109.912
913.05	112.802
915.943	126.877
918.836	96.951
921.729	106.418
924.621	118.285
927.514	120.695
930.407	113.75
933.299	104.201
936.192	135.682
939.085	135.224
941.977	143.683
944.87	94.7104
947.763	91.698
950.655	48.9807
953.548	30.4391
956.441	2.69067
959.334	14.8597
962.226	23.7723
965.119	13.9406
968.012	3.02869
970.904	0.102722
973.797	40.0204
976.69	105.078
979.582	185.225
982.475	242.456
985.368	297.812
988.261	307.12
991.153	376.852
994.046	445.726
996.939	491.296
999.831	562.839
1002.72	588.242
1005.62	532.692
1008.51	527.366
1011.4	636.159
1014.29	789.307
1017.19	949.392
1020.08	1148.16
1022.97	1284.62
1025.87	1316.61
1028.76	1184.72
1031.65	929.758
1034.54	738.13
1037.44	605.191
1040.33	470.708
1043.22	398.455
1046.12	400.451
1049.01	395.193
1051.9	403.313
1054.79	396.295
1057.68	334.702
1060.58	277.445
1063.47	208.522
1066.36	132.131
1069.26	109.188
1072.15	65.8892
1075.04	71.8772
1077.93	83.5089
1080.83	119.266
1083.72	216.501
1086.61	286.343
1089.51	411.962
1092.4	541.191
1095.29	637.958
1098.18	673.633
1101.08	712.467
1103.97	679.143
1106.86	677.078
1109.75	606.546
1112.65	470.597
1115.54	327.456
1118.43	202.357
1121.33	121.642
1124.22	77.2112
1127.11	56.0755
1130	17.7828
1132.9	18.1652
1135.79	5.09686
1138.68	16.6702
1141.57	14.8452
1144.47	7.01172
1147.36	10.6494
1150.25	4.72763
1153.14	13.6146
1156.04	13.9607
1158.93	42.8642
1161.82	16.8012
1164.71	0.929474
1167.61	36.2915
1170.5	37.9718
1173.39	25.5008
1176.29	35.8074
1179.18	57.4579
1182.07	49.708
1184.96	51.8714
1187.86	58.5431
1190.75	53.8784
1193.64	48.4072
1196.54	57.775
1199.43	59.2483
1202.32	35.7661
1205.21	35.0255
1208.11	24.0083
1211	39.2291
1213.89	52.4074
1216.78	58.2472
1219.68	33.4355
1222.57	28.3077
1225.46	40.9124
1228.36	24.036
1231.25	30.2751
1234.14	38.7821
1237.03	37.9295
1239.93	29.1865
1242.82	18.9648
1245.71	34.045
1248.6	28.5868
1251.5	16.2288
1254.39	25.839
1257.28	8.13889
1260.17	6.79829
1263.07	10.1307
1265.96	32.4811
1268.85	25.4681
1271.74	16.11
