Measurement: Raman, 532 nm, unoriented, Raman Data Processed
Mineral: Tintinaite
Rruff sample: R110163
Ideal chemistry: Pb^2+^_10_Cu^1+^_2_Sb^3+^_16_S^2-^_35_
Locality: Tintina Silver mine, Watson Lake, Yukon Territory, Canada
Source: Big piece from Royal Ontario Museum (M37320) and two smaller pieces from Mark Feinglos.
Description: Cut slab of malachite-stained weathered quartz containing massive lead-grey veinlets. Co-type material.
Raman shift (cm-1)	intensity
175.827	0
178.72	7.71693
181.612	5.58684
184.505	0.769119
187.398	0.212814
190.29	0.120132
193.183	4.05896
196.076	6.34334
198.968	10.0765
201.861	13.0429
204.754	13.2657
207.647	16.4875
210.539	21.0381
213.432	23.8088
216.325	27.6206
219.217	30.929
222.11	36.4757
225.003	38.8192
227.895	38.1065
230.788	42.5676
233.681	42.2493
236.573	43.3973
239.466	42.3835
242.359	41.4841
245.252	41.1592
248.144	37.7567
251.037	37.3284
253.93	32.0496
256.822	33.1763
259.715	29.9205
262.608	25.908
265.5	24.903
268.393	23.6627
271.286	20.9795
274.179	21.5648
277.071	19.5046
279.964	13.1606
282.857	12.3713
285.75	9.76695
288.642	7.7233
291.535	7.44459
294.428	8.07443
297.32	9.05341
300.213	9.25615
303.106	8.42919
305.998	8.61171
308.891	11.549
311.784	14.1713
314.676	18.7191
317.569	23.7879
320.462	28.1616
323.355	29.9426
326.247	30.1673
329.14	23.9303
332.033	17.3414
334.925	11.8332
337.818	2.45189
340.711	2.09917
343.603	0.741714
346.496	1.29999
349.389	2.07194
352.281	1.49223
355.174	0.655167
358.067	2.14834
360.96	0.537605
363.852	0.017494
366.745	1.48227
369.638	0.457863
372.53	1.21584
375.423	3.60237
378.316	4.2374
381.209	4.34993
384.101	3.72329
386.994	5.96279
389.887	7.57134
392.779	6.44968
395.672	4.90988
398.565	8.22165
401.457	7.91409
404.35	7.05274
407.243	6.74702
410.135	7.90032
413.028	7.89916
415.921	6.21619
418.814	5.1814
421.706	2.4309
424.599	4.71501
427.492	4.20921
430.384	5.41843
433.277	4.26508
436.17	2.25518
439.062	4.93145
441.955	3.69223
444.848	4.42849
447.741	6.43681
450.633	4.20472
453.526	5.67248
456.419	6.78035
459.311	6.80023
462.204	9.6288
465.097	9.27326
467.99	10.3211
470.882	11.1099
473.775	10.2004
476.668	6.19392
479.56	4.96674
482.453	4.94841
485.346	2.7689
488.238	1.08581
491.131	2.94547
494.024	1.93256
496.916	1.27772
499.809	1.01254
502.702	1.15224
505.595	1.59369
508.487	1.99373
511.38	2.80293
514.273	1.15484
517.165	0.272297
520.058	0.030659
522.951	2.22128
525.844	2.49669
528.736	1.26202
531.629	1.00396
534.522	2.68208
537.414	0.76598
540.307	1.91255
543.2	2.81008
546.092	2.12762
548.985	1.3685
551.878	2.34605
554.771	2.28022
557.663	4.18423
560.556	2.9369
563.449	1.65123
566.341	1.49678
569.234	1.88197
572.127	2.27716
575.019	1.7473
577.912	2.53645
580.805	2.49741
583.697	0.35178
586.59	0.201557
589.483	0.700533
592.376	2.3054
595.268	2.48308
598.161	1.55035
601.054	2.23135
603.946	0.758705
606.839	1.2366
609.732	1.96622
612.625	1.07774
615.517	2.57844
618.41	0.966421
621.303	1.65525
624.195	0.292904
627.088	2.29933
629.981	1.04392
632.873	0.754368
635.766	1.47033
638.659	0.807333
641.552	0.814764
644.444	0.523823
647.337	1.30506
650.23	0.741877
653.122	1.43611
656.015	2.14994
658.908	0.248177
661.8	0.479227
664.693	0.738232
667.586	1.38606
670.479	0.412439
673.371	1.78456
676.264	1.84865
679.157	2.19951
682.049	1.63909
684.942	0.355173
687.835	1.76819
690.727	3.30175
693.62	1.73574
696.513	1.83167
699.405	2.2995
702.298	0.88945
705.191	0.727184
708.084	2.18543
710.976	1.34762
713.869	1.87929
716.762	2.50018
719.654	1.67896
722.547	1.31538
725.44	2.5422
728.332	1.44118
731.225	1.66726
734.118	1.20451
737.011	2.0957
739.903	3.17155
742.796	1.3782
745.689	2.67148
748.581	2.7159
751.474	2.74256
754.367	0.381672
757.26	3.16602
760.152	2.30146
763.045	2.01075
765.938	2.17745
768.83	1.64802
771.723	1.50622
774.616	0.892113
777.508	3.36643
780.401	2.14081
783.294	2.96897
786.187	3.19299
789.079	2.14257
791.972	0.276075
794.865	1.82507
797.757	0.963299
800.65	1.10329
803.543	1.99236
806.435	2.81218
809.328	1.25613
812.221	1.99449
815.114	0.093046
818.006	3.51801
820.899	2.59861
823.792	2.80255
826.684	1.07462
829.577	1.99807
832.47	2.3581
835.362	1.78493
838.255	1.6675
841.148	2.90192
844.04	2.30662
846.933	2.24876
849.826	1.82906
852.719	3.41471
855.611	2.93212
858.504	2.46927
861.397	1.42652
864.289	1.64556
867.182	1.44601
870.075	0.713417
872.967	0.854892
875.86	1.35286
878.753	1.94031
881.646	1.29567
884.538	2.08108
887.431	0.079124
890.324	1.98754
893.216	0.625917
896.109	1.65215
899.002	1.09712
901.894	0.445627
904.787	1.30256
907.68	1.30467
910.573	3.35794
913.465	2.02533
916.358	2.26439
919.251	1.41495
922.143	3.11702
925.036	0.907197
927.929	1.7748
930.822	1.90991
933.714	3.0001
936.607	3.61678
939.5	1.21277
942.392	0.177244
945.285	0.997095
948.178	1.65433
951.07	1.46451
953.963	2.03259
956.856	0.712115
959.749	0.285245
962.641	1.26247
965.534	0.730737
968.427	0.845685
971.319	1.00667
974.212	0.456187
977.105	1.09093
979.997	2.29431
982.89	1.73542
985.783	1.65147
988.676	1.0661
991.568	0.24032
994.461	0.124427
997.354	0.795634
1000.25	1.75893
1003.14	1.21667
1006.03	0.994921
1008.92	0.997428
1011.82	1.4047
1014.71	0.654357
1017.6	1.57148
1020.5	1.18764
1023.39	1.77488
1026.28	1.32328
1029.17	1.92784
1032.07	0.61786
1034.96	2.25279
1037.85	0.0299
1040.74	2.2752
1043.64	0.335328
1046.53	1.34167
1049.42	0.831396
1052.32	1.5793
1055.21	2.44131
1058.1	3.27979
1060.99	2.35242
1063.89	3.54282
1066.78	0.541866
1069.67	2.37394
1072.56	2.93439
1075.46	2.49614
1078.35	2.13912
1081.24	3.19733
1084.13	2.76946
1087.03	2.90502
1089.92	2.56804
1092.81	4.40247
1095.7	2.47679
1098.6	4.09414
1101.49	1.95367
1104.38	3.31013
1107.28	1.544
1110.17	3.539
1113.06	3.54988
1115.95	3.17405
1118.85	2.51442
1121.74	2.86476
1124.63	1.71904
1127.53	3.32821
1130.42	3.28566
1133.31	4.09793
1136.2	2.67179
1139.1	1.15551
1141.99	1.84059
1144.88	2.50805
1147.77	1.57858
1150.67	1.76878
1153.56	0.804232
1156.45	1.58845
1159.35	1.34899
1162.24	2.4237
1165.13	1.06343
1168.02	0.072552
1170.92	0.187402
1173.81	1.94036
1176.7	0.545264
1179.59	2.9113
1182.49	1.99938
1185.38	1.27861
1188.27	1.69275
1191.16	2.094
1194.06	0.896145
1196.95	2.96962
1199.84	2.61806
1202.73	2.60466
1205.63	2.46058
1208.52	2.59066
1211.41	0.041071
1214.31	2.14195
1217.2	2.39718
1220.09	1.89436
1222.98	3.28466
1225.88	2.26659
1228.77	1.31353
1231.66	0.50977
1234.56	3.02633
1237.45	1.16897
1240.34	0.506185
1243.23	0.453325
1246.13	2.41098
1249.02	0.163948
1251.91	3.07938
1254.8	1.89691
1257.7	0.806623
1260.59	1.80308
1263.48	2.79982
1266.38	2.07953
1269.27	4.63426
1272.16	2.15706
1275.05	1.22451
1277.95	0.631934
1280.84	0.170764
1283.73	2.14805
1286.62	0.373919
1289.52	2.27467
1292.41	2.98871
1295.3	1.37294
1298.19	2.20325
1301.09	0.920017
