Measurement: Raman, 532 nm, unoriented, Raman Data Processed
Mineral: Tiptopite
Rruff sample: R070609
Ideal chemistry: K_2_(Li,Na,Ca)_6_(Be_6_P_6_)O_24_(OH)_2_1.3H_2_O
Locality: Tip Top mine, Custer County, South Dakota, USA
Source: Dakota Matrix Minerals
Description: Radiating colorless prismatic crystals
Raman shift (cm-1)	intensity
144.944	0
147.837	129.557
150.73	90.7764
153.622	60.1841
156.515	66.3633
159.408	40.1226
162.3	96.2344
165.193	122.86
168.086	67.3379
170.979	122.397
173.871	110.337
176.764	80.4512
179.657	83.1685
182.549	99.7686
185.442	36.293
188.335	26.3765
191.227	58.0415
194.12	25.1201
197.013	19.2144
199.905	15.7881
202.798	8.42236
205.691	31.52
208.584	58.7793
211.476	7.84863
214.369	4.56836
217.262	5.41113
220.154	24.6314
223.047	75.5259
225.94	20.7627
228.833	51.3648
231.725	117.041
234.618	61.1831
237.511	116.927
240.403	136.477
243.296	230.737
246.189	194.309
249.081	246.998
251.974	175.79
254.867	171.277
257.76	80.2163
260.652	108.811
263.545	118.791
266.438	95.4277
269.33	87.6768
272.223	95.4399
275.116	93.3838
278.008	48.8984
280.901	26.3774
283.794	55.8032
286.687	24.0083
289.579	29.3525
292.472	39.7109
295.365	20.7363
298.257	54.9688
301.15	33.5859
304.043	55.7432
306.935	85.3936
309.828	125.121
312.721	144.743
315.613	298.437
318.506	311.115
321.399	346.044
324.292	374.113
327.184	483.799
330.077	595.245
332.97	501.201
335.862	369.392
338.755	303.384
341.648	157.375
344.541	73.5288
347.433	69.7539
350.326	28.5801
353.219	48.5181
356.111	16.3101
359.004	39.8711
361.897	15.2192
364.789	70.2197
367.682	41.1108
370.575	148.639
373.467	74.5566
376.36	141.025
379.253	157.132
382.146	202.544
385.038	167.283
387.931	187.815
390.824	130.727
393.716	127.956
396.609	153.962
399.502	153.658
402.394	94.4609
405.287	29.3477
408.18	83.6856
411.072	93.9404
413.965	86.4981
416.858	155.446
419.751	109.523
422.643	237.82
425.536	269.93
428.429	307.129
431.321	314.291
434.214	425.506
437.107	381.533
440	387.203
442.892	336.353
445.785	188.579
448.678	188.662
451.57	117.088
454.463	113.454
457.356	163.001
460.248	122.592
463.141	68.1025
466.034	47.1602
468.926	26.4873
471.819	24.957
474.712	24.4492
477.605	57.2207
480.497	32.9082
483.39	4.47559
486.283	41.3994
489.175	0.949219
492.068	53.4434
494.961	17.7588
497.853	45.999
500.746	141.292
503.639	105.607
506.532	20.2666
509.424	74.5312
512.317	49.8672
515.21	167.361
518.102	137.255
520.995	273.963
523.888	173.865
526.78	275.671
529.673	121.194
532.566	185.112
535.459	128.13
538.351	27.666
541.244	55.3242
544.137	9.22363
547.029	45.1875
549.922	270.191
552.815	233.883
555.707	277.221
558.6	431.06
561.493	561.884
564.386	466.302
567.278	349.76
570.171	268.211
573.064	105.447
575.956	5.99023
578.849	80.7275
581.742	84.6231
584.634	90.1465
587.527	27.6621
590.42	182.861
593.312	144.6
596.205	216.778
599.098	205.805
601.991	174.169
604.883	119.727
607.776	181.296
610.669	123.955
613.561	51.7393
616.454	88.375
619.347	48.584
622.24	16.8145
625.132	7.46973
628.025	7.19629
630.918	39.293
633.81	35.124
636.703	4.58789
639.596	42.9297
642.488	77.3564
645.381	23.0674
648.274	162.265
651.167	70.2207
654.059	126.911
656.952	80.9853
659.845	50.2861
662.737	150.698
665.63	96.7822
668.523	202.269
671.415	63.3555
674.308	126.848
677.201	201.709
680.093	147.236
682.986	122.361
685.879	123.621
688.771	94.4609
691.664	17.3457
694.557	8.01562
697.45	47.1094
700.342	107.172
703.235	96.2539
706.128	102.406
709.02	90.5371
711.913	210.301
714.806	140.111
717.698	62.6836
720.591	131.44
723.484	88.9707
726.377	69.2324
729.269	216.533
732.162	144.842
735.055	125.311
737.947	84.9062
740.84	68.9316
743.733	65.1543
746.625	59.918
749.518	102.053
752.411	179.848
755.304	37.0449
758.196	18.3477
761.089	77.5449
763.982	202.326
766.874	173.107
769.767	196.738
772.66	186.336
775.553	140.613
778.445	263.824
781.338	287.324
784.231	168.828
787.123	116.49
790.016	139.746
792.909	152.209
795.801	126.723
798.694	35.3848
801.587	12.2383
804.48	50.6562
807.372	167.617
810.265	7.59766
813.158	23.8262
816.05	133.188
818.943	28.8867
821.836	211.871
824.728	9.25586
827.621	94.0234
830.514	178.514
833.407	192.35
836.299	49.0352
839.192	91.8438
842.085	79.1445
844.977	117.773
847.87	139.402
850.763	110.652
853.655	88.8223
856.548	234.018
859.441	137.377
862.333	178.676
865.226	138.565
868.119	84.8125
871.011	95.3086
873.904	32.8457
876.797	67.5859
879.69	191.496
882.582	147.836
885.475	161.076
888.368	107.01
891.26	120.853
894.153	206.703
897.046	224.1
899.938	287.861
902.831	138.967
905.724	312.053
908.617	143.746
911.509	177
914.402	134.508
917.295	18.4707
920.187	82.334
923.08	124.041
925.973	19.7305
928.865	33.75
931.758	25.2773
934.651	62.1641
937.544	32.2793
940.436	27.291
943.329	125.43
946.222	202.629
949.114	113.338
952.007	201.582
954.9	19.4316
957.793	104.881
960.685	154.279
963.578	56.668
966.471	254.693
969.363	308.393
972.256	440.959
975.149	363.193
978.041	381.438
980.934	518.168
983.827	479.389
986.72	577.422
989.612	624.186
992.505	694.797
995.398	913.732
998.29	1126.29
1001.18	1735.04
1004.08	2238.97
1006.97	2445.56
1009.86	2636.85
1012.75	2450.3
1015.65	1983.12
1018.54	1517.71
1021.43	1191.21
1024.33	1004.38
1027.22	1008.21
1030.11	758.68
1033	836.574
1035.89	671.996
1038.79	717.566
1041.68	600.996
1044.57	567.598
1047.47	433.992
1050.36	446.008
1053.25	417.785
1056.14	500.191
1059.04	375.285
1061.93	222.379
1064.82	187.238
1067.71	203.457
1070.61	256.664
1073.5	251.664
1076.39	220.344
1079.29	41.0664
1082.18	73.5938
1085.07	8.57422
1087.96	86.4023
1090.86	12.7734
1093.75	168.824
1096.64	84.5859
1099.54	58.2695
1102.43	215.559
1105.32	153.125
1108.21	125.824
1111.11	134.219
1114	6.34375
1116.89	27.9258
1119.78	25.3281
1122.68	182.711
1125.57	12.5898
1128.46	99.7383
1131.35	191.738
1134.25	283.566
1137.14	287.375
1140.03	272.289
1142.92	136.816
1145.82	29.7773
1148.71	54.5664
1151.6	321.41
1154.5	332.652
1157.39	306.141
1160.28	378.949
1163.17	67.2422
1166.07	111.773
1168.96	108.398
1171.85	218.391
1174.74	231.914
1177.64	130.824
1180.53	147.617
1183.42	57.3281
1186.32	147.262
1189.21	15.043
1192.1	13.9688
1194.99	72.6094
1197.89	278.449
1200.78	338.516
1203.67	76.8867
1206.57	138.441
1209.46	96.5859
1212.35	167.062
1215.24	150.977
1218.13	281.59
1221.03	268.301
1223.92	37.0742
1226.81	71.5625
1229.71	11.8672
1232.6	189.859
1235.49	384.5
1238.38	330.168
1241.28	69.9102
1244.17	303.852
1247.06	339.422
1249.95	410.918
1252.85	244.977
1255.74	113.227
1258.63	95.5
1261.53	134.129
