Measurement: Raman, 780 nm, unoriented, Raman Data Processed
Mineral: Titantaramellite
Rruff sample: R080041
Ideal chemistry: Ba_4_(Ti^4+^,Fe^3+^,Mg)_4_(O,OH)_2_[B_2_Si_8_O_27_]Cl_x_
Locality: La Madrelena mine, Tres Pozos, Municipio de Tecate, Baja California Norte, Mexico
Source: Michael Scott
Description: Black grains associated with pink gillespite and quartz
Raman shift (cm-1)	intensity
131.173	0
134.065	0.12027
136.958	0.993622
139.851	1.06042
142.743	0.647125
145.636	2.08224
148.529	1.49744
151.421	3.51767
154.314	4.65448
157.207	3.92596
160.1	3.40921
162.992	2.63434
165.885	3.08652
168.778	3.07849
171.67	2.17795
174.563	2.00156
177.456	3.21567
180.348	3.39111
183.241	1.47134
186.134	3.48196
189.026	3.60965
191.919	1.92535
194.812	1.46912
197.705	2.24094
200.597	2.88998
203.49	2.86099
206.383	3.5564
209.275	5.18695
212.168	3.77435
215.061	4.5964
217.953	5.38818
220.846	4.88327
223.739	6.00159
226.632	4.83911
229.524	3.43298
232.417	5.51999
235.31	2.85184
238.202	4.18103
241.095	1.79111
243.988	1.11438
246.881	0.560791
249.773	0.28006
252.666	0.40274
255.559	1.69061
258.451	0.143829
261.344	0.04306
264.237	1.51538
267.129	1.23279
270.022	1.54257
272.915	3.00809
275.808	3.48242
278.7	3.14749
281.593	3.63327
284.486	4.69809
287.378	4.37399
290.271	4.69424
293.164	5.30115
296.056	5.77139
298.949	7.00909
301.842	7.28421
304.735	9.01709
307.627	9.49701
310.52	10.4369
313.413	12.1565
316.305	13.2188
319.198	14.4546
322.091	18.1113
324.983	19.1874
327.876	20.4529
330.769	22.5025
333.661	24.3312
336.554	25.3438
339.447	27.3797
342.34	27.1739
345.232	24.6797
348.125	24.7053
351.018	21.74
353.91	21.8077
356.803	18.1954
359.696	19.5357
362.589	16.2311
365.481	15.1852
368.374	12.4519
371.267	11.8397
374.159	10.7441
377.052	8.64471
379.945	8.56256
382.837	6.21918
385.73	6.11261
388.623	4.57065
391.515	2.81686
394.408	2.45831
397.301	1.42071
400.194	1.34775
403.086	0.242279
405.979	0.085724
408.872	1.35681
411.764	0.098236
414.657	0.066467
417.55	0.019653
420.442	0.603241
423.335	0.857269
426.228	0.691528
429.121	2.33224
432.013	2.96133
434.906	4.14737
437.799	5.86694
440.691	6.59833
443.584	7.17844
446.477	10.4178
449.37	11.3751
452.262	14.749
455.155	15.1562
458.048	15.2239
460.94	16.1632
463.833	13.6339
466.726	12.0854
469.618	9.90872
472.511	9.42154
475.404	7.78119
478.296	6.85486
481.189	6.43936
484.082	4.97232
486.974	2.8631
489.867	3.28674
492.76	2.71216
495.653	1.27844
498.545	1.8765
501.438	1.40759
504.331	0.492798
507.223	1.08792
510.116	1.87872
513.009	1.90033
515.902	1.21314
518.794	1.90936
521.687	1.33423
524.58	0.595947
527.472	1.69565
530.365	2.6427
533.258	2.41995
536.15	1.50507
539.043	1.86029
541.936	3.71658
544.829	2.2774
547.721	3.97015
550.614	3.09094
553.507	3.13849
556.399	2.68897
559.292	1.87173
562.185	1.3436
565.077	0.289825
567.97	0.620605
570.863	0.152832
573.756	0.140137
576.648	0.329895
579.541	0.235077
582.434	0.749756
585.326	0.385986
588.219	1.04361
591.112	2.07254
594.005	3.42062
596.897	2.56152
599.79	2.93765
602.683	4.4079
605.575	3.39774
608.468	3.44791
611.361	3.49777
614.253	1.96585
617.146	1.05771
620.039	1.08957
622.932	0.236969
625.824	1.07431
628.717	0.161652
631.61	0.630829
634.502	0.231659
637.395	1.67438
640.288	1.06082
643.18	0.941254
646.073	0.473328
648.966	0.176453
651.859	0.007111
654.751	0.10498
657.644	0.101501
660.537	1.02216
663.429	0.769714
666.322	0.284668
669.215	0.23172
672.107	0.666748
675	0.549316
677.893	0.789185
680.785	0.351532
683.678	0.855865
686.571	0.30249
689.464	0.383942
692.356	0.986053
695.249	1.28058
698.142	1.55316
701.034	2.74573
703.927	3.80447
706.82	3.32718
709.712	3.98425
712.605	4.28189
715.498	6.7041
718.391	7.88959
721.283	7.22897
724.176	6.88257
727.069	8.51666
729.961	9.3045
732.854	11.6848
735.747	10.3233
738.639	11.3484
741.532	12.59
744.425	14.4278
747.318	13.3281
750.21	14.8655
753.103	15.6607
755.996	15.5631
758.888	15.0441
761.781	16.1997
764.674	16.2336
767.567	16.7663
770.459	15.9795
773.352	14.9411
776.245	13.0572
779.137	13.1139
782.03	11.12
784.923	10.2484
787.815	8.1568
790.708	7.72174
793.601	5.63141
796.494	4.20734
799.386	3.62555
802.279	1.3374
805.172	1.19986
808.064	0.870361
810.957	0.480011
813.85	0.392761
816.742	0.263702
819.635	0.716888
822.528	0.2771
825.42	0.154449
828.313	0.037994
831.206	0.589447
834.098	0.651489
836.991	0.558746
839.884	1.05295
842.777	1.69183
845.669	1.4754
848.562	2
851.455	1.41361
854.347	2.54651
857.24	1.73999
860.133	1.73377
863.025	2.53375
865.918	5.00339
868.811	3.63705
871.704	3.95886
874.596	3.49329
877.489	3.8728
880.382	3.21875
883.274	2.55228
886.167	2.69379
889.06	1.53555
891.952	1.67557
894.845	3.18549
897.738	2.4458
900.631	2.43362
903.523	2.12271
906.416	0.654114
909.309	1.13513
912.201	0.061523
915.094	0.475464
917.987	0.697357
920.88	0.005493
923.772	1.36435
926.665	0.663879
929.558	0.796112
932.45	0.384888
935.343	0.055878
938.236	0.037415
941.128	1.44876
944.021	0.808075
946.914	1.23007
949.807	1.74722
952.699	1.32321
955.592	1.44321
958.485	1.99744
961.377	1.56256
964.27	2.04175
967.163	2.71829
970.055	3.44528
972.948	2.80859
975.841	2.35883
978.734	2.75922
981.626	1.77798
984.519	1.95609
987.412	2.1669
990.304	0.275879
993.197	0.195221
996.09	0.791534
998.982	0.365784
1001.88	0.845459
1004.77	0.206329
1007.66	0.652039
1010.55	1.00232
1013.45	1.04452
1016.34	0.75769
1019.23	0.828094
1022.12	1.73041
1025.02	0.620972
1027.91	1.70673
1030.8	0.289215
1033.69	1.23071
1036.59	1.62766
1039.48	1.92773
1042.37	2.24014
1045.27	2.13809
1048.16	2.3652
1051.05	2.01334
1053.94	2.81271
1056.84	2.69449
1059.73	3.8432
1062.62	3.02786
1065.52	2.98163
1068.41	3.14673
1071.3	2.38239
1074.19	1.86145
1077.09	1.06442
1079.98	0.977722
1082.87	1.10284
1085.76	1.66898
1088.66	1.69806
1091.55	1.87495
1094.44	0.755386
1097.33	0.543472
1100.23	0.736221
1103.12	0.847855
1106.01	0.755005
1108.9	0.283524
1111.8	0.659302
1114.69	0.544693
1117.58	0.042358
1120.48	0.485916
1123.37	0.430069
1126.26	0.132278
1129.15	0.422684
1132.05	0.250809
1134.94	0.212463
1137.83	1.12286
1140.72	0.573273
1143.62	0.145859
1146.51	0.506866
1149.4	0.120865
1152.3	0.076767
1155.19	0.046356
1158.08	0.884979
1160.97	2.33272
1163.87	2.23344
1166.76	1.88898
1169.65	2.69428
1172.54	1.72055
1175.44	1.9727
1178.33	1.7226
1181.22	1.91155
1184.12	2.14868
1187.01	3.03621
1189.9	3.58618
1192.79	1.56409
1195.69	1.60414
1198.58	1.81773
1201.47	2.08987
1204.36	2.75839
1207.26	0.857071
1210.15	1.67093
1213.04	1.97485
1215.93	1.08969
1218.83	1.01842
1221.72	0.786484
1224.61	0.409302
1227.51	1.13303
1230.4	0.924347
1233.29	0.917313
1236.18	0.847427
1239.08	1.77742
1241.97	1.72223
1244.86	0.515472
1247.76	1.16515
1250.65	1.7388
1253.54	0.966171
1256.43	1.22788
1259.33	0.857468
1262.22	0.483429
1265.11	0.12944
1268	1.6989
1270.9	1.68469
1273.79	0.76059
1276.68	1.85165
1279.57	1.36798
1282.47	0.679047
1285.36	0.699402
