Measurement: Raman, 514 nm, unoriented, Raman Data Processed
Mineral: Titanite
Rruff sample: R040033
Ideal chemistry: CaTi^4+^SiO_5_
Locality: Brazil
Source: University of Arizona Mineral Museum
Description: Green flattened wedge-shaped single crystals
Measured chemistry: (Ca_0.97_Fe^3+^_0.03_)_Σ=1_(Ti_0.97_Al_0.03_)_Σ=1_Si_1.00_O_5_; Fe^3+^ assigned for charge balance
Raman shift (cm-1)	intensity
100.34	0
104.516	47.215
108.691	116.771
112.864	198.021
117.034	21.741
121.203	8.014
125.369	280.821
129.534	520.299
133.696	1070.36
137.857	4740.17
142.016	8554.43
146.172	4411.96
150.327	1966.9
154.48	3369.67
158.63	5578.98
162.779	5965.95
166.926	4580.93
171.07	3710.87
175.213	3811.84
179.354	4091.43
183.493	4349.74
187.63	4305.92
191.765	4715.65
195.898	5855.93
200.029	6575.33
204.158	7162.49
208.285	7998.62
212.41	8288.85
216.533	8944.31
220.654	10090.1
224.773	11603.2
228.891	14377.6
233.006	15334.4
237.119	12246.6
241.231	11703.3
245.34	13480
249.448	14834
253.553	15051.6
257.657	13543.5
261.758	10954.5
265.858	8776.45
269.956	7099.82
274.052	5921.39
278.146	5879.97
282.237	7001.93
286.327	8905.27
290.416	10154.1
294.502	9306.25
298.586	10501.1
302.668	13577.4
306.749	15692.1
310.827	17617.1
314.903	20654.2
318.978	18849.3
323.051	14312.5
327.121	11404.6
331.19	10634.6
335.257	9673.5
339.322	9140.22
343.385	10976.6
347.446	15064.5
351.505	15395.9
355.563	9239.84
359.618	4682.41
363.672	2659.57
367.723	1471.32
371.773	690.693
375.821	70.691
379.866	24.809
383.91	158.999
387.952	250.369
391.992	41.612
396.031	397.406
400.067	545.755
404.101	568.15
408.134	348.809
412.165	361.7
416.193	1658.97
420.22	2940.71
424.245	2839.2
428.268	1775.65
432.289	771.075
436.309	343.472
440.326	239.827
444.342	63.869
448.355	52.024
452.367	14.901
456.377	171.765
460.385	559.441
464.391	843.221
468.395	891.054
472.398	700.885
476.398	794.679
480.397	1572.41
484.394	2332.09
488.389	2917.74
492.382	3345.38
496.373	3494.01
500.362	3414.65
504.349	3297.32
508.335	3510.04
512.319	3823.81
516.3	4269.65
520.28	4850.58
524.259	5506.61
528.235	6703.76
532.209	8374.04
536.182	9940.28
540.152	10791.2
544.121	10828.1
548.088	9966.93
552.053	8472.63
556.017	6727.24
559.978	5695.97
563.938	6060.44
567.895	7346.78
571.851	9117.77
575.805	10878.2
579.758	13202.1
583.708	16940.6
587.657	21912.7
591.603	28502.4
595.548	35232.7
599.491	42181.6
603.432	47571.2
607.372	49189.9
611.309	46346.4
615.245	40681.3
619.179	35226
623.111	29716.2
627.041	25671.5
630.97	21299.6
634.896	18143.4
638.821	15920.4
642.744	13806.7
646.665	11891.2
650.584	10634.8
654.502	9824.27
658.418	8343.55
662.331	7691.59
666.244	6894.33
670.154	6207.21
674.062	5662.96
677.969	5050.85
681.874	4593.46
685.777	4260.79
689.678	3681.84
693.577	3437.62
697.475	2942.36
701.371	2678.12
705.265	2329.63
709.157	2115.94
713.047	1765.76
716.936	1574.67
720.823	1352.89
724.708	1071.17
728.591	1077.71
732.472	828.933
736.352	629.827
740.23	457.381
744.106	261.583
747.98	139.426
751.853	11.901
755.723	42.998
759.592	125.266
763.459	198.783
767.325	177.601
771.188	96.971
775.05	85.069
778.91	136.054
782.768	88.874
786.625	80.476
790.479	188.02
794.332	371.135
798.183	575.757
802.033	886.137
805.88	1364.64
809.726	1906.13
813.57	2561.22
817.413	3041.97
821.253	3338.95
825.092	3585.22
828.929	3839.77
832.764	4534.59
836.598	5498.62
840.429	7398.86
844.259	10198.3
848.088	15057.9
851.914	21036.6
855.739	24710.4
859.562	22726.4
863.383	18310.3
867.203	15501.3
871.02	14900.3
874.836	13066.2
878.65	10894
882.463	9369.71
886.274	8243.28
890.083	6835.69
893.89	4666.93
897.695	3335.99
901.499	2583.19
905.301	2607.75
909.102	2976
912.9	2842.58
916.697	2045.99
920.492	1094.12
924.285	506.789
928.077	172.617
931.867	9.647
935.655	89.884
939.442	66.288
943.226	166.088
947.009	134.482
950.791	22.405
954.57	18.188
958.348	96.837
962.124	124.716
965.899	242.439
969.671	384.817
973.442	537.55
977.211	686.101
980.979	670.633
984.745	823.043
988.509	886.819
992.271	1088.39
996.032	1055.78
999.791	1077.23
1003.55	1014.39
1007.3	1141.8
1011.06	1129.74
1014.81	1189.82
1018.56	1174.36
1022.31	1199.35
1026.06	1190.8
1029.8	944.694
1033.55	797.038
1037.29	753.828
1041.03	693.062
1044.77	600.738
1048.5	413.855
1052.24	391.405
1055.97	267.379
1059.7	255.744
1063.43	216.526
1067.16	282.778
1070.89	185.536
1074.61	285.768
1078.34	342.569
1082.06	516.286
1085.78	774.152
1089.5	834.368
1093.21	766.544
1096.93	625.391
1100.64	290.795
1104.35	159.648
1108.06	10.807
1111.77	15.903
1115.48	4.637
1119.18	26.368
1122.89	11.584
1126.59	9.271
1130.29	4.564
1133.99	47.1
1137.68	69.308
1141.38	58.06
1145.07	36.375
1148.76	47.189
1152.45	37.725
1156.14	154.804
1159.83	283.536
1163.51	385.952
1167.19	573.058
1170.88	924.857
1174.56	1527.36
1178.23	2299.56
1181.91	2537.48
1185.59	1984.11
1189.26	1387.47
1192.93	1173.56
1196.6	1129.21
1200.27	1276.32
1203.94	1200.87
1207.6	1289.91
1211.27	1404.93
1214.93	1501.18
1218.59	1246.99
1222.25	976
1225.9	848.095
1229.56	895.236
1233.21	943.078
1236.86	1007.51
1240.51	1120.51
1244.16	1199.81
1247.81	1219.83
1251.45	1254.96
1255.1	997.049
1258.74	737.087
1262.38	512.951
1266.02	448.246
1269.66	397.545
1273.29	267.598
1276.93	227.789
1280.56	181.866
1284.19	149.257
1287.82	185.983
1291.45	203.202
1295.07	291.139
1298.7	363.608
1302.32	430.015
1305.94	446.92
1309.56	444.708
1313.18	455.299
1316.8	497.743
1320.41	466.007
1324.02	413.2
1327.63	473.323
1331.24	343.393
1334.85	205.428
1338.46	198.426
1342.06	112.385
1345.67	133.303
1349.27	185.188
1352.87	97.083
1356.47	152.02
1360.07	86.17
1363.66	35.297
1367.25	8.562
1370.85	18.359
1374.44	11.825
1378.03	45.449
1381.61	17.934
1385.2	26.822
1388.78	33.766
1392.37	7.479
1395.95	50.876
1399.53	38.561
1403.1	49.489
1406.68	24.635
1410.26	101.979
1413.83	121.51
1417.4	68.16
1420.97	149.832
1424.54	195.547
1428.1	252.331
1431.67	250.2
1435.23	329.171
1438.8	320.227
1442.36	388.457
1445.91	442.96
1449.47	403.765
1453.03	429.849
1456.58	436.643
1460.13	363.97
1463.68	362.14
1467.23	306.964
1470.78	281.717
1474.33	202.554
1477.87	210.025
1481.42	151.021
1484.96	236.383
1488.5	143.047
1492.04	106.513
1495.57	124.568
1499.11	109.287
1502.64	61.354
1506.17	59.88
1509.71	64.595
1513.23	105.671
1516.76	2.867
1520.29	62.137
1523.81	11.987
