Measurement: Raman, 785 nm, unoriented, Raman Data Processed
Mineral: Titanite
Rruff sample: R050039
Ideal chemistry: CaTi^4+^SiO_5_
Locality: Kingman, Arizona, USA
Source: University of Arizona Mineral Museum
Description: Black fragment from a single crystal
Measured chemistry: (Ca_0.95_Y_0.05_)(Ti_0.85_Al_0.10_Fe^3+^_0.06_)Si_1.00_O_4_(O_0.93_F_0.07_)
Raman shift (cm-1)	intensity
157.66	0
160.553	56.8047
163.446	812.918
166.338	1329.9
169.231	1460.59
172.124	1133.79
175.017	899.766
177.909	989.555
180.802	920.152
183.695	1230.55
186.587	1308.93
189.48	1625.68
192.373	1895.54
195.265	2431.03
198.158	3180.95
201.051	3532.77
203.944	3898.89
206.836	3956.98
209.729	4164.69
212.622	4321.83
215.514	4790.66
218.407	4970.86
221.3	5176.1
224.192	5033.47
227.085	4827.04
229.978	4380.1
232.87	4126.62
235.763	3801.16
238.656	3482.4
241.549	3089.18
244.441	2670.76
247.334	2448.22
250.227	2045.37
253.119	1633.93
256.012	1314.32
258.905	1212.34
261.798	827.875
264.69	526.273
267.583	259.363
270.476	84.25
273.368	61.5234
276.261	263.394
279.154	167.371
282.046	149.332
284.939	83.9531
287.832	227.398
290.724	462.57
293.617	762.785
296.51	1134.59
299.403	1630.98
302.295	2543.25
305.188	3378.03
308.081	3766.69
310.973	4512.74
313.866	4878.14
316.759	5250.31
319.651	5665.1
322.544	5905.62
325.437	6052.11
328.33	6183.28
331.222	6166.2
334.115	5799.58
337.008	5326.78
339.9	4856.99
342.793	4444.31
345.686	4094.49
348.579	3785.41
351.471	3463.34
354.364	3186.92
357.257	2595.45
360.149	2140.02
363.042	1562.2
365.935	1174.55
368.827	989.387
371.72	981.16
374.613	713.57
377.505	445.004
380.398	124.027
383.291	204.695
386.184	325.273
389.076	283.707
391.969	178.867
394.862	86.7148
397.754	87.1523
400.647	230.055
403.54	365.613
406.433	757.785
409.325	1098.62
412.218	1849.09
415.111	2179.12
418.003	2734.01
420.896	2912.48
423.789	2981.66
426.681	3089.95
429.574	3104.28
432.467	3229.53
435.36	3243.26
438.252	3374.75
441.145	3243.64
444.038	3017.42
446.93	2960.93
449.823	2831.32
452.716	2763.14
455.608	2628.36
458.501	2544.86
461.394	2654.82
464.286	2659.1
467.179	2522.92
470.072	2505.57
472.965	2342.26
475.857	1904.74
478.75	1758.54
481.643	1719.76
484.535	1604.53
487.428	1431.82
490.321	1372.92
493.214	1091.06
496.106	898.027
498.999	725.309
501.892	642.125
504.784	600.715
507.677	660.18
510.57	740.754
513.462	726.414
516.355	791.402
519.248	763.457
522.14	938.422
525.033	1101.85
527.926	1116.8
530.819	1423.04
533.711	1692.75
536.604	1781.8
539.497	1866.39
542.389	1873.27
545.282	1674.21
548.175	1498.43
551.067	1397.41
553.96	1319.71
556.853	1084.64
559.745	849.734
562.638	655.559
565.531	449.434
568.424	247.953
571.316	162.293
574.209	204.223
577.102	109.383
579.994	87.5547
582.887	93.8555
585.78	125.262
588.673	250.481
591.565	285.481
594.458	90.3203
597.351	29.4062
600.243	118.965
603.136	219.102
606.029	482.856
608.921	715.508
611.814	899.875
614.707	1202.51
617.6	1391.01
620.492	1754.12
623.385	1981.73
626.278	2344.6
629.17	2674.08
632.063	2964.43
634.956	3286.39
637.848	3327.5
640.741	3545.19
643.634	3776.55
646.527	3810.89
649.419	3850.96
652.312	3906.2
655.205	4053.61
658.097	4034.99
660.99	4089
663.883	4106.22
666.775	4081
669.668	4110.98
672.561	3981.12
675.454	3812.6
678.346	3655.59
681.239	3458.64
684.132	3109.13
687.024	2839.5
689.917	2719.48
692.81	2455.98
695.702	2231.72
698.595	2137.46
701.488	1921.8
704.381	1847.12
707.273	1579.89
710.166	1504
713.059	1321.69
715.951	1230.31
718.844	1141.58
721.737	1039.61
724.63	960.582
727.522	786.262
730.415	629.42
733.308	500.164
736.2	404.945
739.093	311.785
741.986	199.492
744.878	165.016
747.771	44.9902
750.664	69.6523
753.557	141.799
756.449	131.529
759.342	116.029
762.235	110.67
765.127	184.857
768.02	3.69727
770.913	13.1172
773.805	129.625
776.698	298.727
779.591	357.342
782.484	664.525
785.376	659.66
788.269	965.809
791.162	1179.82
794.054	1352.62
796.947	1409.85
799.84	1717.3
802.732	1824.4
805.625	1975.01
808.518	2039.41
811.41	2170.55
814.303	2316.55
817.196	2329.01
820.089	2371.59
822.981	2397.84
825.874	2419.11
828.767	2471.32
831.659	2552.78
834.552	2573.49
837.445	2589.32
840.337	2649.38
843.23	2731.22
846.123	2595.49
849.016	2664.85
851.908	2631.63
854.801	2650.99
857.694	2483.39
860.586	2494.68
863.479	2325.53
866.372	2196.72
869.264	2115.07
872.157	1977.25
875.05	1783.89
877.943	1866.73
880.835	1706.04
883.728	1713.76
886.621	1627.82
889.513	1630.55
892.406	1567.8
895.299	1610.66
898.192	1549.53
901.084	1588.24
903.977	1536.28
906.87	1547.88
909.762	1460.75
912.655	1281.56
915.548	1294.08
918.44	1121.5
921.333	927.991
924.226	749.088
927.119	587.503
930.011	427.943
932.904	355.794
935.797	232.728
938.689	152.698
941.582	23.1729
944.475	45.3076
947.367	161.481
950.26	169.056
953.153	269.266
956.045	258.938
958.938	202.821
961.831	368.318
964.724	299.09
967.616	290.467
970.509	150.398
973.402	46.7002
976.294	73.3994
979.187	363.374
982.08	591.036
984.972	973.475
987.865	1349.75
990.758	2018.59
993.651	2722.64
996.543	3909.1
999.436	5124.28
1002.33	6816.95
1005.22	8619.01
1008.11	10750.8
1011.01	13138.6
1013.9	15680.8
1016.79	18190.8
1019.68	20767
1022.58	23222.2
1025.47	25083.9
1028.36	26822.7
1031.26	27759
1034.15	28424.8
1037.04	28561.6
1039.93	28236.7
1042.83	27434.4
1045.72	26687.6
1048.61	25367.2
1051.51	24009.7
1054.4	22682.2
1057.29	21281.1
1060.18	19890.8
1063.08	18340.9
1065.97	16984.6
1068.86	15759
1071.75	14600
1074.65	13539.3
1077.54	12443.1
1080.43	11609.4
1083.32	10798.8
1086.22	10010.3
1089.11	9142.77
1092	8221.91
1094.89	7529.31
1097.79	6805.55
1100.68	5986.06
1103.57	5333.09
1106.47	4580.33
1109.36	3841.55
1112.25	3112.95
1115.14	2534.7
1118.04	1935.86
1120.93	1480.81
1123.82	902.412
1126.71	636.652
1129.61	313.293
1132.5	97.2832
1135.39	141.197
1138.29	267.453
1141.18	195.254
1144.07	56.4414
1146.96	264.842
1149.86	379.135
1152.75	430.988
1155.64	416.518
1158.53	419.75
1161.43	252.768
1164.32	0
