Measurement: Raman, 532 nm, unoriented, Raman Data Processed
Mineral: Titanite
Rruff sample: R040033
Ideal chemistry: CaTi^4+^SiO_5_
Locality: Brazil
Source: University of Arizona Mineral Museum
Description: Green flattened wedge-shaped single crystals
Measured chemistry: (Ca_0.97_Fe^3+^_0.03_)_Σ=1_(Ti_0.97_Al_0.03_)_Σ=1_Si_1.00_O_5_; Fe^3+^ assigned for charge balance
Raman shift (cm-1)	intensity
136.315	0
139.207	110.648
142.1	714.572
144.993	1333.62
147.885	255.88
150.778	29.918
153.671	201.362
156.564	781.91
159.456	1439
162.349	1810.25
165.242	1480.5
168.134	810.442
171.027	306.321
173.92	53.8101
176.812	12.73
179.705	24.769
182.598	69.6856
185.49	39.0581
188.383	9.3916
191.276	21.2266
194.169	147.386
197.061	366.779
199.954	618.349
202.847	833.469
205.739	1043.36
208.632	1173.88
211.525	1279.52
214.417	1353.14
217.31	1535.19
220.203	1819.67
223.096	2063.81
225.988	2342.74
228.881	2603.68
231.774	2956.76
234.666	3092.13
237.559	2725.18
240.452	2698.56
243.345	3132.86
246.237	3796.72
249.13	4311.11
252.023	4393.94
254.915	4084.88
257.808	3455.76
260.701	2608.66
263.593	1736
266.486	1005.93
269.379	483.153
272.272	97.6035
275.164	65.3799
278.057	115.736
280.95	31.0571
283.842	193.966
286.735	553.58
289.628	899.379
292.52	1044.71
295.413	1057.58
298.306	1400.62
301.199	2057.77
304.091	2732.11
306.984	3281
309.877	3642.54
312.769	4194.61
315.662	4805.19
318.555	4685.38
321.447	3813.85
324.34	3155.13
327.233	2964.36
330.125	3059.82
333.018	3125.14
335.911	2981.16
338.804	2729.24
341.696	2481.82
344.589	2433.09
347.482	2592.2
350.374	2802.8
353.267	2468.07
356.16	1671.38
359.053	1102.02
361.945	774.028
364.838	570.107
367.731	402.781
370.623	239.553
373.516	125.673
376.409	25.9871
379.301	24.2206
382.194	38.0205
385.087	0.801636
387.979	25.5071
390.872	18.1775
393.765	29.8978
396.658	48.1732
399.55	6.33752
402.443	113.822
405.336	283.362
408.228	518.12
411.121	784.909
414.014	1127.75
416.906	1540.87
419.799	1979.49
422.692	2187.41
425.585	1975.63
428.477	1526.18
431.37	1154.79
434.263	928.479
437.155	788.914
440.048	716.863
442.941	731.967
445.833	771.395
448.726	912.474
451.619	1120.26
454.512	1383.43
457.404	1721.16
460.297	2193.97
463.19	2691.92
466.082	2998.19
468.975	2762.05
471.868	1901.7
474.76	1048.85
477.653	513.211
480.546	240.628
483.438	138.165
486.331	112.932
489.224	96.4829
492.117	95.1585
495.009	80.7751
497.902	31.2752
500.795	35.3464
503.687	69.7153
506.58	76.3455
509.473	13.688
512.365	67.7419
515.258	163.775
518.151	293.373
521.044	437.018
523.936	602.497
526.829	811.58
529.722	1105.51
532.614	1448.19
535.507	1808.27
538.4	2093.22
541.293	2205.23
544.185	2115.5
547.078	1910.12
549.971	1645.44
552.863	1276.76
555.756	815.886
558.649	435.699
561.541	147.916
564.434	40.2925
567.327	98.8411
570.22	1.74414
573.112	268.888
576.005	629.555
578.898	1116.22
581.79	1782.96
584.683	2634
587.576	3645.17
590.468	4868.41
593.361	6146.86
596.254	7526.14
599.146	8885.9
602.039	10053.3
604.932	10818.5
607.825	11035.4
610.717	10676.9
613.61	9853
616.503	8788.49
619.395	7676.05
622.288	6653.94
625.181	5662.51
628.073	4816.7
630.966	4038.2
633.859	3340.9
636.752	2743.12
639.644	2284.81
642.537	1900.42
645.43	1583.13
648.322	1312.5
651.215	1124.23
654.108	927.96
657	798.486
659.893	665.71
662.786	544.134
665.679	451.974
668.571	343.656
671.464	274.577
674.357	202.357
677.249	165.914
680.142	111.272
683.035	82.769
685.928	43.6873
688.82	28.6484
691.713	15.1057
694.606	8.38916
697.498	15.5962
700.391	17.5715
703.284	25.9902
706.176	23.9297
709.069	23.0283
711.962	27.6078
714.855	40.4529
717.747	21.366
720.64	21.6799
723.533	2.03247
726.425	0.658203
729.318	0.208496
732.211	1.58057
735.103	5.56189
737.996	7.13135
740.889	0.172974
743.782	1.40332
746.674	0.223511
749.567	1.78516
752.46	9.80322
755.352	13.2772
758.245	17.7702
761.138	16.9776
764.03	16.6313
766.923	21.3948
769.816	23.0093
772.708	23.511
775.601	19.1593
778.494	22.8439
781.387	22.2822
784.279	18.3599
787.172	33.0173
790.065	34.6805
792.957	43.3192
795.85	66.6328
798.743	92.9571
801.635	124.558
804.528	179.829
807.421	248.307
810.313	320.309
813.206	384.046
816.099	446.743
818.992	469.603
821.884	475.876
824.777	478.159
827.67	484.535
830.562	519.61
833.455	601.038
836.348	753.77
839.24	975.954
842.133	1297.08
845.026	1686.77
847.919	2105.6
850.811	2526.61
853.704	2841.37
856.597	2905.03
859.489	2672.16
862.382	2301.46
865.275	2006.14
868.168	1852.88
871.06	1720.22
873.953	1499.04
876.846	1171.16
879.738	873.365
882.631	659.245
885.524	495.764
888.416	353.628
891.309	272.563
894.202	231.645
897.095	229.25
899.987	265.658
902.88	322.153
905.773	395.747
908.665	455.89
911.558	466.266
914.451	391.47
917.343	268.403
920.236	147.06
923.129	68.176
926.021	13.5438
928.914	10.4132
931.807	23.3734
934.7	29.0357
937.592	26.3248
940.485	16.5287
943.378	14.8016
946.27	8.55356
949.163	6.24945
952.056	17.1659
954.948	35.1924
957.841	48.4366
960.734	56.4018
963.627	75.3678
966.519	88.1336
969.412	104.181
972.305	123.891
975.197	145.254
978.09	166.127
980.983	195.895
983.875	226.728
986.768	254.757
989.661	278.856
992.554	285.171
995.446	274.708
998.339	251.014
1001.23	238.879
1004.12	241.448
1007.02	243.316
1009.91	248.772
1012.8	243.811
1015.7	232.622
1018.59	214.478
1021.48	185.4
1024.37	155.327
1027.27	114.522
1030.16	79.7815
1033.05	54.5529
1035.94	35.7243
1038.84	20.6741
1041.73	14.7814
1044.62	9.34421
1047.52	3.95877
1050.41	0.947311
1053.3	1.7197
1056.19	0.856384
1059.09	0.618805
1061.98	5.51709
1064.87	5.76854
1067.76	7.81506
1070.66	10.9324
1073.55	11.2349
1076.44	10.2278
1079.34	11.5328
1082.23	12.0763
1085.12	12.0018
1088.01	14.5433
1090.9	12.4901
1093.8	10.7948
1096.69	8.20373
1099.58	7.85162
1102.48	4.77594
1105.37	4.76198
1108.26	3.73635
1111.15	1.36977
1114.05	1.3316
1116.94	1.2658
1119.83	1.22961
1122.72	1.06372
1125.62	0.917908
1128.51	1.51309
1131.4	0.817154
1134.3	0.087303
1137.19	0.874069
1140.08	3.11547
1142.97	4.83901
1145.87	5.60844
1148.76	5.90976
1151.65	6.53107
1154.55	6.93917
1157.44	6.55943
1160.33	9.05763
1163.22	8.71884
1166.12	8.91842
1169.01	8.63636
1171.9	8.7103
1174.79	8.03567
1177.69	9.93218
1180.58	9.78751
1183.47	9.67285
1186.37	8.40838
1189.26	10.5315
1192.15	9.83479
1195.04	8.30853
1197.93	6.31889
1200.83	8.5486
1203.72	6.3678
1206.61	5.35293
1209.51	7.30675
1212.4	4.20678
1215.29	4.65598
1218.18	3.36832
1221.08	3.31075
1223.97	3.76959
1226.86	3.37507
1229.76	0.2939
1232.65	2.56275
1235.54	0.054352
1238.43	0.799728
1241.33	1.66505
1244.22	0.590973
1247.11	0.412033
1250	0.926514
1252.9	0.868126
1255.79	0.17907
1258.68	1.25212
1261.58	1.91256
1264.47	4.99003
1267.36	2.57959
1270.25	4.24557
1273.15	3.57909
1276.04	2.30905
1278.93	3.25214
1281.82	1.96429
1284.72	1.09225
1287.61	0.087238
