Measurement: Raman, 514 nm, unoriented, Raman Data Processed
Mineral: Titanite
Rruff sample: R050039
Ideal chemistry: CaTi^4+^SiO_5_
Locality: Kingman, Arizona, USA
Source: University of Arizona Mineral Museum
Description: Black fragment from a single crystal
Measured chemistry: (Ca_0.95_Y_0.05_)(Ti_0.85_Al_0.10_Fe^3+^_0.06_)Si_1.00_O_4_(O_0.93_F_0.07_)
Raman shift (cm-1)	intensity
126.758	0
130.922	313.744
135.083	89.715
139.243	566.725
143.401	675.238
147.557	1068.92
151.711	1334.21
155.863	1736.16
160.013	2061.54
164.161	2387.51
168.308	2616.72
172.452	3193.86
176.594	3708.93
180.734	4107.66
184.872	4688.77
189.008	4799.62
193.143	5685.04
197.275	6628.43
201.405	7480.55
205.534	8475.32
209.66	9344.68
213.784	10497.8
217.907	11526.3
222.027	11864.5
226.146	11927.1
230.263	10862.5
234.377	10247.9
238.49	9522.03
242.601	10215.2
246.709	10394.4
250.816	10574.9
254.921	10451.3
259.024	9969.52
263.125	8636.5
267.224	7844.31
271.321	6792.02
275.416	5717.08
279.51	5235.73
283.601	5158.08
287.69	4988.31
291.778	5566.46
295.863	5731
299.947	6422.36
304.029	7102.46
308.108	7607.02
312.186	8148.82
316.262	8186.99
320.336	8140.9
324.408	8171.02
328.478	7321.98
332.546	7013.15
336.612	6249.15
340.677	5810.1
344.739	5624.44
348.799	5460.61
352.858	5478.66
356.915	5385.9
360.969	5277.58
365.022	5167.98
369.073	4606.96
373.122	3184.92
377.169	2314.88
381.215	1700.39
385.258	1347.43
389.299	820.953
393.339	447.93
397.376	623.289
401.412	122.896
405.446	130.59
409.478	192.25
413.508	385.812
417.536	802.25
421.562	1498.55
425.586	1574.69
429.609	1586.67
433.629	1708.45
437.648	1284.03
441.665	1128.41
445.68	1151.57
449.693	1188.49
453.704	1980.28
457.713	1935.54
461.721	2446.32
465.726	2217.45
469.73	2200.8
473.731	2026.34
477.731	1331.98
481.729	727.664
485.725	404.377
489.72	237.094
493.712	24.365
497.703	570.76
501.691	591.568
505.678	419.295
509.663	651.379
513.646	625.016
517.627	272.674
521.607	87.533
525.584	17.941
529.56	196.25
533.534	430.125
537.506	729.787
541.476	791.234
545.444	1154.46
549.41	896.471
553.375	903.25
557.337	1142.81
561.298	832.145
565.257	1579.18
569.214	2548.84
573.17	3457.53
577.123	4738.01
581.075	5977.29
585.024	6441.38
588.972	7523.29
592.918	8436.3
596.863	8905.59
600.805	9680
604.746	9881.25
608.685	10471.4
612.621	10784.3
616.557	11530.2
620.49	11849.9
624.421	12003.4
628.351	12069.5
632.279	12546.8
636.205	12306.7
640.129	12311.1
644.051	11896.5
647.972	11761
651.89	11204.3
655.807	10936.7
659.722	10579.1
663.636	10155.7
667.547	9445.22
671.457	8687.33
675.365	8255.86
679.271	7855.31
683.175	7753.57
687.077	7506.58
690.978	6939.77
694.877	6922.33
698.774	6510.27
702.669	5986.6
706.562	5371.27
710.454	5334.42
714.344	4720.93
718.232	4018.83
722.118	4068.13
726.002	3359.85
729.885	3501.97
733.766	2654.51
737.645	2784.46
741.522	2307.82
745.397	2174.61
749.271	1616.81
753.143	1208.43
757.013	912.477
760.881	826.945
764.748	432.834
768.613	337.15
772.476	156.893
776.337	438.055
780.196	43.646
784.054	11.898
787.91	58.154
791.764	149.668
795.616	421.008
799.467	244.465
803.316	214.553
807.163	176.258
811.008	160.795
814.851	184.816
818.693	411.648
822.533	723.775
826.371	1343.98
830.208	1893.19
834.042	2219.1
837.875	3225.25
841.706	4471.99
845.536	5471.84
849.363	6784.77
853.189	8271.75
857.013	11226.8
860.836	13271.9
864.656	16671
868.475	19790.1
872.292	23468.3
876.108	25861.4
879.922	27969.6
883.733	28718.7
887.544	28634.6
891.352	27644.7
895.159	25404.7
898.964	21526.6
902.767	17536.3
906.568	13784
910.368	10791.6
914.166	7877.04
917.962	5625.34
921.757	3701.5
925.55	2178.5
929.341	1140.32
933.13	242.957
936.918	372.725
940.703	418.854
944.488	643.057
948.27	425.271
952.051	133.818
955.83	652.887
959.607	1254.22
963.383	2220.82
967.156	3593.05
970.928	4660.48
974.699	5371.81
978.468	5570.58
982.234	5672.64
986	5690.02
989.763	5682.46
993.525	5173.03
997.285	5253.83
1001.04	4984.13
1004.8	4470.94
1008.55	4288.26
1012.31	4047
1016.06	4058.38
1019.81	4147.17
1023.56	4343.45
1027.31	4493.21
1031.05	4987.44
1034.79	4958.16
1038.53	5025.34
1042.27	4664.98
1046.01	4579.09
1049.75	4193.65
1053.48	3456.67
1057.22	3064.14
1060.95	2498.07
1064.68	2378.45
1068.4	2551.29
1072.13	2858.59
1075.86	3709.36
1079.58	4635.59
1083.3	5144.61
1087.02	5502
1090.74	5197.19
1094.45	4103.85
1098.17	2861.4
1101.88	1517.2
1105.59	1028.57
1109.3	197.107
1113.01	13.578
1116.71	6.357
1120.42	253.991
1124.12	17.79
1127.82	165.485
1131.52	170.747
1135.22	10.494
1138.91	447.924
1142.61	590.087
1146.3	1533.08
1149.99	2714.88
1153.68	4308.43
1157.37	6015.7
1161.06	8612.65
1164.74	11061.3
1168.42	14039.6
1172.1	16227.5
1175.78	18379.1
1179.46	18526.4
1183.14	17255.2
1186.81	15525.7
1190.48	14445.7
1194.15	13979.4
1197.83	13724.7
1201.49	13271.6
1205.16	13112.4
1208.82	11986.2
1212.49	11462.1
1216.15	10969.9
1219.81	10486.8
1223.46	10375.7
1227.12	10918.7
1230.78	11813.2
1234.43	12684.3
1238.08	13411.1
1241.73	13708
1245.38	13303.6
1249.03	12608.5
1252.67	11412.5
1256.31	10255.7
1259.95	9088.83
1263.6	7915.89
1267.23	6969.18
1270.87	6147.06
1274.51	5686.26
1278.14	5404.01
1281.77	5363.41
1285.4	5460.94
1289.03	5787.77
1292.66	6125.38
1296.28	6687.25
1299.91	7276.91
1303.53	7604.86
1307.15	7898.55
1310.77	8188.14
1314.38	8059.33
1318	7995.72
1321.61	7681
1325.23	6971.76
1328.84	6314.32
1332.45	5963.72
1336.06	5265.35
1339.66	4681.81
1343.27	3933.29
1346.87	3205.95
1350.47	2741.05
1354.07	2335.68
1357.67	1827.86
1361.26	1290.43
1364.86	912.729
1368.45	502.149
1372.04	220.333
1375.63	153.745
1379.22	180.368
1382.81	320.668
1386.39	163.96
1389.98	129.527
1393.56	109.133
1397.14	0.83
1400.72	100.796
1404.3	355.11
1407.87	641.278
1411.45	990.376
1415.02	1375.22
1418.59	1589.53
1422.16	2189.97
1425.73	2622.15
1429.29	3067.36
1432.86	3433.82
1436.42	3522.36
1439.98	3367.69
1443.54	3089.56
1447.1	3316.14
1450.66	3123.24
1454.21	2894.34
1457.77	2696.28
1461.32	2241.08
1464.87	1840.16
1468.42	1141.14
1471.96	1039.41
1475.51	500.243
1479.06	190.663
1482.6	89.681
1486.14	5.693
