Measurement: Raman, 532 nm, unoriented, Raman Data Processed
Mineral: Titanite
Rruff sample: R050114
Ideal chemistry: CaTi^4+^SiO_5_
Locality: Isthak Valley Iskardu, Northern Areas Gilgit, Pakistan
Source: Syed Shah
Description: Yellowish-brown fragment
Measured chemistry: (Ca_0.99_Na_0.01_)(Ti_0.96_Al_0.03_Fe^3+^_0.01_)Si_1.00_O_4_(O_0.95_F_0.05_)
Raman shift (cm-1)	intensity
135.771	0
139.145	11.498
142.52	175.812
145.895	1371.41
149.27	1964.22
152.645	3585.3
156.019	6560.44
159.394	10500.3
162.769	12949.6
166.144	11090.2
169.519	6785.98
172.894	3738.86
176.268	3100.4
179.643	3334.57
183.018	3674.89
186.393	4034.99
189.768	4597.36
193.143	5919.38
196.517	7562.57
199.892	8969.56
203.267	11049.9
206.642	13256.4
210.017	14402.4
213.391	14628.9
216.766	15566.8
220.141	16719.4
223.516	18235.5
226.891	19892.1
230.265	21436.1
233.64	22652.7
237.015	23200.2
240.39	24067.3
243.765	26673.5
247.139	29832.5
250.514	31145.8
253.889	28924.1
257.264	23964.6
260.639	17529.7
264.014	10989.3
267.388	5928.21
270.763	2852.96
274.138	796.053
277.513	317.932
280.888	881.275
284.262	546.231
287.637	76.9629
291.012	39.0625
294.387	156.363
297.762	1861.92
301.137	5123.64
304.511	7465.69
307.886	8418.08
311.261	9193.19
314.636	10338.8
318.011	10868.8
321.385	11074
324.76	11227.9
328.135	12454.6
331.51	13855
334.885	14451.6
338.26	13311.6
341.634	11191.5
345.009	9089.69
348.384	7712.29
351.759	7011.98
355.134	6542.89
358.508	6063.35
361.883	5432.29
365.258	4844.22
368.633	3973.27
372.008	2855.4
375.382	2036.72
378.757	1147.19
382.132	403.565
385.507	145.826
388.882	193.116
392.257	110.171
395.631	124.768
399.006	231.289
402.381	18.832
405.756	486.37
409.131	1348.79
412.505	2564.68
415.88	4027.97
419.255	5941.46
422.63	7961.03
426.005	9013.89
429.38	8379.32
432.754	7376.47
436.129	7263.23
439.504	7961.67
442.879	9067.91
446.254	10554.3
449.628	12635.7
453.003	15519.5
456.378	18942.6
459.753	22800.6
463.128	27133.8
466.502	30554.1
469.877	29383.3
473.252	22099.9
476.627	12864.7
480.002	6250.07
483.377	2641.49
486.751	869.473
490.126	129.514
493.501	201.297
496.876	252.6
500.251	325.644
503.625	228.09
507	30.5215
510.375	395.643
513.75	1341.56
517.125	2257.79
520.5	3600.83
523.874	5208.06
527.249	7369.7
530.624	9969.32
533.999	12652.1
537.374	15006.5
540.748	16653
544.123	16839.6
547.498	16309.4
550.873	14921.4
554.248	12219.1
557.622	8709.15
560.997	5353.19
564.372	2299.61
567.747	120.941
571.122	476.881
574.497	1233.03
577.871	4601.77
581.246	9061.45
584.621	14679.4
587.996	20827.1
591.371	27161.5
594.745	33124.7
598.12	38046.4
601.495	40963.4
604.87	41515
608.245	39533.5
611.62	36223
614.994	31619.4
618.369	26920.6
621.744	22572.6
625.119	18820
628.494	15544.2
631.868	12995.6
635.243	10588.9
638.618	8625.62
641.993	7166.2
645.368	5850.49
648.742	4808.34
652.117	4072.79
655.492	3338.87
658.867	2812.56
662.242	2145.47
665.617	1722.59
668.991	1221.43
672.366	905.567
675.741	548.078
679.116	230.465
682.491	58.3828
685.865	145.314
689.24	256.603
692.615	282.588
695.99	222.608
699.365	72.9932
702.74	39.2754
706.114	38.7734
709.489	16.4863
712.864	178.565
716.239	151.494
719.614	83.2383
722.988	115.71
726.363	103.061
729.738	106.149
733.113	228.083
736.488	257.144
739.862	252.16
743.237	239.708
746.612	173
749.987	199.022
753.362	139.081
756.737	66.3486
760.111	64.4751
763.486	171.185
766.861	223.243
770.236	241.415
773.611	284.913
776.986	447.99
780.36	443.331
783.735	517.73
787.11	583.629
790.485	631.163
793.86	695.125
797.234	730.559
800.609	730.335
803.984	719.261
807.359	581.418
810.734	555.654
814.108	432.245
817.483	306.249
820.858	235.2
824.233	148.069
827.608	89.7056
830.982	48.8535
834.357	40.6599
837.732	2.27295
841.107	112.252
844.482	280.099
847.857	545.365
851.231	759.106
854.606	890.681
857.981	913.605
861.356	750.635
864.731	496.259
868.106	317.56
871.48	256.492
874.855	250.157
878.23	269.198
881.605	382.464
884.98	541.267
888.354	762.034
891.729	1076.8
895.104	1548.69
898.479	2161.95
901.854	2849.87
905.229	3545.92
908.603	4341.39
911.978	4845.78
915.353	4595.41
918.728	3754.39
922.102	2791.67
925.477	1988.62
928.852	1396.59
932.227	905.155
935.602	563.575
938.977	316.856
942.351	155.443
945.726	25.2141
949.101	0.784668
952.476	91.2318
955.851	41.3965
959.226	34.1997
962.6	4.35022
965.975	15.5416
969.35	93.7578
972.725	157.92
976.1	249.224
979.474	353.637
982.849	445.257
986.224	606.148
989.599	683.64
992.974	764.23
996.348	816.797
999.723	811.18
1003.1	813.227
1006.47	841.184
1009.85	882.582
1013.22	875.35
1016.6	836.8
1019.97	778.102
1023.35	664.164
1026.72	486.347
1030.1	272.315
1033.47	124.205
1036.85	24.14
1040.22	0.204102
1043.6	46.4946
1046.97	166.492
1050.35	313.459
1053.72	489.195
1057.1	800.346
1060.47	1135.87
1063.85	1476.16
1067.22	1778.12
1070.59	2000.69
1073.97	1876.15
1077.34	1602.47
1080.72	1354.2
1084.09	1162.26
1087.47	986.672
1090.84	786.235
1094.22	533.854
1097.59	288.167
1100.97	167.305
1104.34	70.9232
1107.72	38.2445
1111.09	20.2994
1114.47	1.6701
1117.84	3.56238
1121.22	10.3979
1124.59	26.2126
1127.97	5.9339
1131.34	19.3643
1134.72	24.5297
1138.09	14.3795
1141.46	9.75586
1144.84	37.0795
1148.21	43.5295
1151.59	39.7769
1154.96	57.389
1158.34	61.3766
1161.71	56.6346
1165.09	70.3772
1168.46	61.7052
1171.84	84.6958
1175.21	72.3378
1178.59	61.5419
1181.96	63.0537
1185.34	77.1507
1188.71	50.191
1192.09	45.8902
1195.46	45.5258
1198.84	52.1134
1202.21	49.0912
1205.59	46.0836
1208.96	43.1417
1212.34	44.2236
1215.71	27.7642
1219.09	28.852
1222.46	12.2947
1225.84	27.0591
1229.21	12.5116
1232.59	28.282
1235.96	7.47415
1239.34	19.7541
1242.71	7.6329
1246.09	13.1152
1249.46	27.054
1252.83	38.7321
1256.21	31.5167
1259.58	18.3811
1262.96	3.73843
1266.33	24.2769
1269.71	27.5246
1273.08	35.9369
1276.46	16.3948
1279.83	3.21857
1283.21	2.31668
1286.58	31.5287
1289.96	6.02084
1293.33	0
