Measurement: Raman, 780 nm, unoriented, Raman Data Processed
Mineral: Titantaramellite
Rruff sample: R060315
Ideal chemistry: Ba_4_(Ti^4+^,Fe^3+^,Mg)_4_(O,OH)_2_[B_2_Si_8_O_27_]Cl_x_
Locality: Esquire #1 claim, Rush Creek, Fresno County, California, USA
Source: Michael Scott
Description: Brown colored subhedral blebs associated with quartz, diopside and sanbornite
Raman shift (cm-1)	intensity
132.031	0
134.924	1.75171
137.816	7.89038
140.709	4.01807
143.602	5.45801
146.494	8.2627
149.387	13.5469
152.28	14.8264
155.173	17.7373
158.065	18.7205
160.958	20.4793
163.851	23.3955
166.743	17.8447
169.636	18.885
172.529	14.1318
175.422	15.804
178.314	6.07983
181.207	15.2412
184.1	2.66992
186.992	11.2432
189.885	7.46069
192.778	10.0215
195.67	12.4182
198.563	14.0618
201.456	18.0935
204.349	3.45557
207.241	10.397
210.134	1.6687
213.027	5.18335
215.919	7.88477
218.812	1.50342
221.705	10.969
224.597	13.1936
227.49	15.4727
230.383	24.1694
233.275	26.2402
236.168	41.5059
239.061	44.9678
241.954	53.9304
244.846	57.5776
247.739	60.9858
250.632	49.8928
253.524	45.2012
256.417	35.2825
259.31	41.9145
262.202	41.9988
265.095	51.5342
267.988	60.7427
270.881	65.5657
273.773	66.2961
276.666	58.8372
279.559	49.7058
282.451	40.2483
285.344	24.8057
288.237	17.0149
291.13	13.261
294.022	10.2124
296.915	6.00195
299.808	11.844
302.7	13.0501
305.593	21.9856
308.486	31.1184
311.378	28.2354
314.271	35.481
317.164	37.5798
320.057	27.2873
322.949	32.3982
325.842	25.3433
328.735	26.679
331.627	24.7935
334.52	31.8518
337.413	43.6562
340.305	44.3171
343.198	42.7605
346.091	49.7827
348.984	50.8198
351.876	45.0078
354.769	39.7517
357.662	34.9597
360.554	24.8686
363.447	24.5584
366.34	16.8391
369.233	20.6167
372.125	11.5803
375.018	13.6621
377.911	18.1929
380.803	20.595
383.696	13.0854
386.589	28.0886
389.481	23.71
392.374	20.2429
395.267	11.698
398.159	0.65332
401.052	6.38965
403.945	7.72974
406.838	10.9404
409.73	2.52368
412.623	4.55127
415.516	5.46606
418.408	0.22876
421.301	0.920166
424.194	2.24658
427.087	8.2915
429.979	6.96167
432.872	14.3933
435.765	16.4939
438.657	19.8638
441.55	30.1934
444.443	43.0974
447.335	50.3501
450.228	57.9961
453.121	67.9665
456.014	95.7114
458.906	108.245
461.799	125.66
464.692	121.154
467.584	103.275
470.477	89.1582
473.37	69.1035
476.262	68.9893
479.155	46.7212
482.048	25.1352
484.94	31.9582
487.833	17.8662
490.726	15.6008
493.619	15.1668
496.511	17.1174
499.404	11.531
502.297	10.9326
505.189	11.8069
508.082	12.9492
510.975	10.4876
513.867	1.30884
516.76	3.8291
519.653	2.07861
522.545	5.06348
525.438	2.79004
528.331	6.31494
531.224	11.2207
534.116	6.18262
537.009	6.87671
539.902	6.8313
542.794	14.2803
545.687	7.83496
548.58	12.6023
551.472	14.6577
554.365	14.2117
557.258	14.5261
560.151	16.5764
563.043	15.2532
565.936	10.407
568.829	8.97168
571.721	9.44922
574.614	5.14014
577.507	5.04492
580.399	2.1084
583.292	0.474854
586.185	6.7063
589.078	0.225342
591.97	9.95166
594.863	4.979
597.756	12.3208
600.649	15.104
603.541	12.7339
606.434	18.0242
609.327	16.4353
612.219	18.4077
615.112	11.4815
618.005	11.4251
620.897	0.636963
623.79	0.848633
626.683	0.353271
629.576	6.61377
632.468	3.52026
635.361	10.2944
638.254	5.24487
641.146	13.2676
644.039	10.1614
646.932	9.34229
649.824	6.02319
652.717	11.2322
655.61	3.30005
658.503	5.1897
661.395	11.5124
664.288	7.86499
667.181	6.11865
670.073	10.9606
672.966	7.50464
675.859	6.26868
678.751	0.68396
681.644	3.05298
684.537	4.76623
687.429	4.65088
690.322	0.11853
693.215	0.496826
696.108	0.965088
699	2.57666
701.893	6.13159
704.786	1.20056
707.678	8.20496
710.571	9.0011
713.464	8.87842
716.356	15.9462
719.249	17.231
722.142	15.6583
725.035	17.1888
727.927	15.2262
730.82	27.3219
733.713	32.5499
736.605	33.4895
739.498	34.6392
742.391	37.6491
745.284	47.2611
748.176	51.7141
751.069	64.1105
753.962	75.6697
756.854	82.1427
759.747	92.026
762.64	97.3094
765.532	97.447
768.425	99.07
771.318	95.8699
774.211	88.374
777.103	83.2358
779.996	70.7404
782.889	59.3729
785.781	60.1787
788.674	52.269
791.567	46.2152
794.459	41.8313
797.352	36.5491
800.245	28.2053
803.138	15.0729
806.03	16.361
808.923	6.12671
811.816	1.15552
814.708	8.49951
817.601	2.29724
820.494	3.05945
823.386	2.8916
826.279	0.519043
829.172	10.4623
832.064	1.29309
834.957	0.293945
837.85	6.03882
840.743	10.1002
843.635	9.22363
846.528	14.8886
849.421	13.7467
852.313	15.5753
855.206	15.8418
858.099	19.3689
860.991	14.2435
863.884	20.6582
866.777	12.1664
869.67	19.1383
872.562	21.1639
875.455	24.8822
878.348	14.6428
881.24	26.9773
884.133	23.6708
887.026	27.7935
889.918	20.0142
892.811	20.3989
895.704	14.6503
898.597	9.37622
901.489	14.6285
904.382	6.72998
907.275	2.8313
910.167	1.25818
913.06	6.12573
915.953	10.8706
918.846	9.1637
921.738	7.89905
924.631	1.19885
927.524	1.95166
930.416	4.56177
933.309	3.73816
936.202	1.14709
939.094	2.03931
941.987	6.22205
944.88	8.56079
947.773	1.11084
950.665	0.813354
953.558	3.31995
956.451	3.47998
959.343	8.30335
962.236	0.790161
965.129	6.73547
968.021	12.5389
970.914	6.33289
973.807	9.57263
976.699	1.38538
979.592	4.52844
982.485	7.31519
985.378	3.6145
988.27	13.8682
991.163	7.19568
994.056	9.28247
996.948	2.65478
999.841	5.91113
1002.73	13.1321
1005.63	1.36438
1008.52	2.2334
1011.41	0.650024
1014.3	7.05359
1017.2	10.404
1020.09	12.8458
1022.98	13.5906
1025.88	20.5983
1028.77	10.3527
1031.66	18.7894
1034.55	16.5452
1037.45	23.3704
1040.34	19.7307
1043.23	14.2303
1046.12	17.9709
1049.02	24.0617
1051.91	20.6498
1054.8	16.3406
1057.69	15.5182
1060.59	17.0599
1063.48	17.536
1066.37	17.1502
1069.27	15.8027
1072.16	20.4512
1075.05	12.9257
1077.94	9.00708
1080.84	13.2214
1083.73	6.97205
1086.62	9.30566
1089.52	15.9248
1092.41	8.52356
1095.3	4.31043
1098.19	0.516357
1101.09	4.66101
1103.98	4.30835
1106.87	1.9906
1109.76	12.6102
1112.66	1.44861
1115.55	3.8335
1118.44	1.68811
1121.34	3.04785
1124.23	8.75745
1127.12	3.67419
1130.01	6.3656
1132.9	1.44922
1135.8	8.11169
1138.69	4.96655
1141.58	11.187
1144.48	8.6344
1147.37	14.2163
1150.26	2.12402
1153.15	7.68433
1156.05	5.21301
1158.94	3.6969
1161.83	12.9509
1164.72	8.05664
1167.62	10.5067
1170.51	10.1469
1173.4	11.2078
1176.3	8.67383
1179.19	7.55078
1182.08	12.0914
1184.97	5.05542
1187.87	6.07568
1190.76	9.37158
1193.65	14.4713
1196.55	14.9424
1199.44	6.0846
1202.33	7.78918
1205.22	11.4188
1208.12	5.76978
1211.01	9.73352
1213.9	6.9314
1216.79	6.65491
1219.69	10.323
1222.58	3.14465
1225.47	8.94617
1228.37	15.5731
1231.26	4.53467
1234.15	3.49976
1237.04	0.710571
1239.93	0.666626
1242.83	3.44629
1245.72	7.81348
1248.61	5.6532
1251.51	0.875122
1254.4	0.070679
1257.29	5.32178
1260.18	11.6224
1263.08	11.1238
1265.97	7.64624
1268.86	6.85095
1271.76	1.05469
1274.65	9.25378
1277.54	4.24426
1280.43	2.05933
1283.33	6.70361
