Measurement: Raman, 532 nm, unoriented, Raman Data Processed
Mineral: Titanowodginite
Rruff sample: R061033
Ideal chemistry: Mn^2+^Ti^4+^Ta^5+^_2_O_8_
Locality: Tanco pegmatite, Manitoba, Canada
Source: Michael Scott
Description: Black crystal fragments embedded in beryl and associated with muscovite
Raman shift (cm-1)	intensity
119.594	0
122.969	202.464
126.343	253.617
129.718	310.968
133.093	189.633
136.468	173.375
139.843	235.678
143.217	161.111
146.592	185.384
149.967	84.4946
153.342	65.1115
156.717	12.4609
160.091	1.63916
163.466	35.0031
166.841	18.6808
170.216	0.733521
173.591	1.47009
176.965	20.9946
180.34	20.1566
183.715	59.3772
187.09	39.907
190.465	65.1133
193.84	78.6975
197.214	35.3489
200.589	55.1749
203.964	50.3273
207.339	60.0729
210.714	55.4215
214.089	25.5735
217.463	2.89368
220.838	2.59277
224.213	0.03186
227.588	17.7948
230.963	5.78857
234.337	26.5997
237.712	17.4902
241.087	11.015
244.462	13.0535
247.837	37.6506
251.212	52.8306
254.586	16.4027
257.961	59.8231
261.336	81.1428
264.711	102.766
268.086	107.747
271.46	135.315
274.835	124.723
278.21	216.934
281.585	244.719
284.96	291.104
288.334	357.766
291.709	361.753
295.084	310.66
298.459	239.142
301.834	190.783
305.209	196.011
308.583	178.84
311.958	148.74
315.333	99.1792
318.708	47.5444
322.083	44.6094
325.457	19.7725
328.832	1.82007
332.207	7.62207
335.582	35.9759
338.957	22.078
342.332	20.4718
345.706	4.96497
349.081	1.07947
352.456	4.83728
355.831	4.12195
359.206	4.5791
362.58	4.94971
365.955	4.92334
369.33	24.4873
372.705	105.52
376.08	150.057
379.454	176.716
382.829	204.161
386.204	221.816
389.579	261.647
392.954	306.135
396.329	341.074
399.703	359.413
403.078	343.868
406.453	359.123
409.828	356.17
413.203	352.101
416.577	329.255
419.952	275.026
423.327	242.504
426.702	251.541
430.077	196.674
433.452	138.517
436.826	143.684
440.201	146.371
443.576	102.674
446.951	99.9898
450.326	78.5962
453.7	73.9889
457.075	71.9434
460.45	40.6119
463.825	65.4823
467.2	56.9663
470.575	53.8798
473.949	71.4351
477.324	35.6033
480.699	53.189
484.074	47.5515
487.449	80.3821
490.823	49.6274
494.198	40.2092
497.573	1.93884
500.948	19.5375
504.323	18.465
507.697	37.5599
511.072	15.8434
514.447	19.0718
517.822	19.9139
521.197	5.54871
524.572	13.3751
527.946	2.78662
531.321	19.6073
534.696	13.9844
538.071	18.783
541.446	7.19739
544.82	28.6593
548.195	67.9591
551.57	73.2242
554.945	77.9698
558.32	149.582
561.694	165.349
565.069	149.325
568.444	218.148
571.819	200.43
575.194	199.09
578.568	251.918
581.943	227.81
585.318	217.138
588.693	230.545
592.068	211.511
595.443	221.145
598.817	218.791
602.192	185.743
605.567	196.868
608.942	174.545
612.317	207.753
615.692	237.778
619.066	267.103
622.441	282.486
625.816	274.916
629.191	313.24
632.566	336.601
635.94	349.278
639.315	345.892
642.69	354.452
646.065	378.816
649.44	388.72
652.814	401.287
656.189	374.698
659.564	395.676
662.939	341.996
666.314	320.136
669.688	276.467
673.063	227.765
676.438	206.203
679.813	190.6
683.188	160.488
686.563	113.154
689.937	86.8118
693.312	72.1175
696.687	72.8125
700.062	50.5227
703.437	12.0308
706.812	25.1252
710.186	22.5507
713.561	49.4404
716.936	9.98254
720.311	9.26916
723.686	11.7156
727.06	6.09656
730.435	11.4586
733.81	3.35339
737.185	41.4934
740.56	72.8884
743.934	72.1476
747.309	80.6233
750.684	77.334
754.059	77.9085
757.434	116.254
760.809	100.039
764.183	74.129
767.558	139.828
770.933	122.396
774.308	96.5743
777.683	135.458
781.057	124.677
784.432	178.773
787.807	163.55
791.182	199.163
794.557	142.849
797.932	151.199
801.306	186.775
804.681	182.756
808.056	215.853
811.431	227.252
814.806	302.252
818.18	314.567
821.555	339.045
824.93	383.515
828.305	443.045
831.68	461.518
835.054	473.616
838.429	504.832
841.804	557.954
845.179	590.11
848.554	616.218
851.929	589.928
855.303	615.945
858.678	625.122
862.053	643.386
865.428	614.081
868.803	584.23
872.178	500.421
875.552	382.858
878.927	312.211
882.302	218.722
885.677	138.343
889.052	88.3522
892.426	56.6441
895.801	28.1292
899.176	19.9506
902.551	15.0053
905.926	8.60364
909.3	4.42859
912.675	3.55414
916.05	19.7747
919.425	8.77081
922.8	2.59753
926.174	32.4274
929.549	0.057983
932.924	40.5143
936.299	1.31177
939.674	24.3122
943.049	50.6619
946.423	25.8514
949.798	33.1285
953.173	50.8761
956.548	51.7757
959.923	40.0068
963.298	61.1967
966.672	22.7806
970.047	47.7294
973.422	35.8865
976.797	53.2766
980.172	5.77313
983.546	22.5079
986.921	34.3848
990.296	36.9141
993.671	30.9278
997.046	54.164
1000.42	30.7427
1003.79	30.5284
1007.17	10.2573
1010.54	22.6045
1013.92	38.1252
1017.29	21.5794
1020.67	11.965
1024.04	14.8904
1027.42	22.6677
1030.79	15.1154
1034.17	48.2216
1037.54	31.629
1040.92	28.3138
1044.29	30.0558
1047.67	8.99359
1051.04	6.1875
1054.42	38.4489
1057.79	29.5834
1061.17	30.8654
1064.54	25.7742
1067.92	22.3189
1071.29	18.5754
1074.67	28.2939
1078.04	11.4624
1081.42	20.6409
1084.79	0.218323
1088.17	2.56421
1091.54	18.9377
1094.91	17.6086
1098.29	29.7366
1101.66	24.5538
1105.04	22.7717
1108.41	23.8199
1111.79	33.5962
1115.16	4.67978
1118.54	3.40051
1121.91	5.08704
1125.29	2.1033
1128.66	37.0135
1132.04	35.0196
1135.41	40.1003
1138.79	25.8292
1142.16	13.1296
1145.54	19.473
1148.91	16.1578
1152.29	23.3692
1155.66	4.7186
1159.04	9.29816
1162.41	34.5388
1165.79	46.2896
1169.16	30.3557
1172.54	35.1613
1175.91	26.9636
1179.29	2.83813
1182.66	6.44266
1186.04	9.62451
1189.41	22.3381
1192.79	6.89291
1196.16	29.4265
1199.54	10.4595
1202.91	10.3098
1206.28	9.67541
1209.66	15.8069
1213.03	36.9926
1216.41	25.7836
1219.78	35.7749
1223.16	7.92007
1226.53	49.5718
1229.91	7.76004
1233.28	31.8944
1236.66	2.25317
1240.03	45.9126
1243.41	34.2687
1246.78	36.3045
1250.16	29.1211
1253.53	26.8993
1256.91	39.2588
1260.28	20.9934
1263.66	25.3346
1267.03	1.80399
1270.41	20.3275
1273.78	41.4088
1277.15	13.0771
1280.53	5.49588
