Measurement: Raman, 780 nm, unoriented, Raman Data Processed
Mineral: Titanite
Rruff sample: R050114
Ideal chemistry: CaTi^4+^SiO_5_
Locality: Isthak Valley Iskardu, Northern Areas Gilgit, Pakistan
Source: Syed Shah
Description: Yellowish-brown fragment
Measured chemistry: (Ca_0.99_Na_0.01_)(Ti_0.96_Al_0.03_Fe^3+^_0.01_)Si_1.00_O_4_(O_0.95_F_0.05_)
Raman shift (cm-1)	intensity
112.42	0
115.313	22.2178
118.206	36.9331
121.098	22.3677
123.991	6.51269
126.884	39.4463
129.776	72.6011
132.669	50.5039
135.562	48.4023
138.455	149.568
141.347	257.365
144.24	432.595
147.133	452.582
150.025	391.069
152.918	487.503
155.811	600.72
158.703	724
161.596	689.351
164.489	435.599
167.382	164.76
170.274	25.6982
173.167	101.002
176.06	102.146
178.952	24.9443
181.845	104.935
184.738	249.8
187.631	432.577
190.523	653.09
193.416	970.688
196.309	1309.36
199.201	1674.71
202.094	2177.08
204.987	2610.76
207.879	3114.63
210.772	3594.51
213.665	4057.81
216.558	4527.75
219.45	4975.87
222.343	5258.96
225.236	5495.63
228.128	5425.83
231.021	5304.24
233.914	4953.74
236.806	4404.66
239.699	3827.47
242.592	3313.45
245.484	2921.63
248.377	2439.18
251.27	2033.48
254.162	1542.37
257.055	1055.77
259.948	580.815
262.841	193.602
265.733	31.7202
268.626	8.61963
271.519	99.5371
274.411	425.332
277.304	701.089
280.197	1270.95
283.089	1937.14
285.982	2571.04
288.875	3213.17
291.768	3840.92
294.66	4201.56
297.553	4567.52
300.446	4856.44
303.338	4852.86
306.231	4522.03
309.124	4005.07
312.017	3478.55
314.909	2828.83
317.802	2268.22
320.695	1652.01
323.587	1145.57
326.48	861.965
329.373	591.194
332.265	439.327
335.158	312.159
338.051	129.932
340.943	35.4487
343.836	65.6597
346.729	103.356
349.622	7.79102
352.514	48.8628
355.407	27.3896
358.3	75.7339
361.192	31.9238
364.085	26.1836
366.978	21.2168
369.87	173.959
372.763	451.207
375.656	904.9
378.549	1653.69
381.441	2766.46
384.334	4307.28
387.227	6182.54
390.119	8332.36
393.012	10568.5
395.905	12670.1
398.798	14562.3
401.69	15805
404.583	16153
407.476	15355
410.368	13461.3
413.261	10965.7
416.154	8562.08
419.046	6303.35
421.939	4603.56
424.832	3466.09
427.724	2416.31
430.617	1748.99
433.51	1395.31
436.402	1151.38
439.295	1041.34
442.188	1012.85
445.081	1103.44
447.973	1278.71
450.866	1301.22
453.759	1423.87
456.651	1491.4
459.544	1570.96
462.437	1656.31
465.329	1643.71
468.222	1385.69
471.115	903.625
474.008	396.299
476.9	1.16504
479.793	160.11
482.686	132.8
485.578	12.9395
488.471	344.332
491.364	610.894
494.257	933.594
497.149	1202.3
500.042	1495.72
502.935	1673.76
505.827	1909.75
508.72	1928.65
511.613	1919.84
514.505	1881.46
517.398	1782.65
520.291	1619.07
523.183	1376.2
526.076	1219.97
528.969	1181.31
531.862	1094.51
534.754	1063.84
537.647	979.44
540.54	911.659
543.432	844.63
546.325	801.786
549.218	635.324
552.11	477.063
555.003	318.617
557.896	93.1123
560.788	113.827
563.681	181.158
566.574	142.022
569.467	38.081
572.359	186.258
575.252	704.241
578.145	1276.41
581.037	2073.64
583.93	3003.58
586.823	3935.79
589.716	5022.87
592.608	6138.42
595.501	7269.23
598.394	8249.79
601.286	9313.49
604.179	10081.9
607.072	10951.5
609.964	11600
612.857	12053.1
615.75	12347.4
618.643	12484.5
621.535	12210.8
624.428	11742
627.321	11357.9
630.213	10609.1
633.106	9803.55
635.999	8960.28
638.891	7942.1
641.784	6871.21
644.677	5873.01
647.569	4801.2
650.462	3995.84
653.355	3201.7
656.248	2656.42
659.14	2177.28
662.033	1722.32
664.926	1439.33
667.818	1099.32
670.711	931.181
673.604	643.359
676.496	473.115
679.389	248.708
682.282	174.606
685.175	2.82519
688.067	64.4526
690.96	135.198
693.853	141.698
696.745	109.633
699.638	0.768066
702.531	20.6855
705.423	170.164
708.316	317.242
711.209	459.756
714.101	665.511
716.994	841.842
719.887	1133.05
722.78	1336.82
725.672	1555.57
728.565	1853.34
731.458	2071.16
734.35	2168.99
737.243	2355.17
740.136	2443.55
743.029	2528.45
745.921	2500.4
748.814	2406.1
751.707	2347.65
754.599	1997.47
757.492	1736.85
760.385	1527.07
763.277	1213.79
766.17	1026.67
769.063	751.939
771.956	622.973
774.848	457.227
777.741	385.405
780.634	297.638
783.526	333.868
786.419	323.993
789.312	334.004
792.204	340.471
795.097	359.408
797.99	344.604
800.882	254.295
803.775	262.475
806.668	208.316
809.561	215.602
812.453	148.904
815.346	160.189
818.239	64.4829
821.131	19.8203
824.024	37.6597
826.917	12.2217
829.809	59.1724
832.702	93.6079
835.595	122.543
838.487	86.312
841.38	56.5884
844.273	1.83984
847.166	101.525
850.058	222.848
852.951	342.169
855.844	536.583
858.736	729.701
861.629	1022.41
864.522	1161.49
867.415	1349.46
870.307	1647.95
873.2	1887.32
876.093	1985.92
878.985	2127.81
881.878	2210.12
884.771	2233.86
887.663	2237.15
890.556	2272.18
893.449	2193.23
896.341	2168.32
899.234	2193.34
902.127	2159.03
905.02	2204.73
907.912	2152.41
910.805	2229.18
913.698	2175
916.59	2114.14
919.483	2029.86
922.376	1986.32
925.269	1892.26
928.161	1813.57
931.054	1748.45
933.947	1731.55
936.839	1659.51
939.732	1617.28
942.625	1557.82
945.517	1547.13
948.41	1467.29
951.303	1442.3
954.196	1423.03
957.088	1408.34
959.981	1379.39
962.874	1421.38
965.766	1399.86
968.659	1401.33
971.552	1394.98
974.444	1294.77
977.337	1272.84
980.23	1170.87
983.122	1065.79
986.015	951.313
988.908	856.634
991.801	761.032
994.693	601.267
997.586	490.043
1000.48	390.054
1003.37	267.535
1006.26	190.018
1009.16	143.777
1012.05	16.1108
1014.94	62.6792
1017.84	162.499
1020.73	205.202
1023.62	251.208
1026.51	304.375
1029.41	286.883
1032.3	309.254
1035.19	213.469
1038.08	133.002
1040.98	12.5723
1043.87	132.245
1046.76	346.01
1049.65	486.099
1052.55	674.192
1055.44	871.651
1058.33	1196.37
1061.22	1566.09
1064.12	2099.19
1067.01	2704.47
1069.9	3671.35
1072.8	4902.5
1075.69	6564.62
1078.58	8528.66
1081.47	11113.4
1084.37	13912.5
1087.26	17300
1090.15	20860.5
1093.05	24460.8
1095.94	28060.2
1098.83	31511.5
1101.72	34842.3
1104.62	37733.7
1107.51	40108
1110.4	41904.6
1113.29	43029.1
1116.19	43576.1
1119.08	43530.8
1121.97	43041.2
1124.87	41522.8
1127.76	39382.2
1130.65	36802.1
1133.54	33968
1136.43	31141.9
1139.33	27564
1142.22	24510.2
1145.11	21302.2
1148.01	18417.3
1150.9	15668.2
1153.79	13194.3
1156.68	11142.4
1159.58	9255.16
1162.47	7519.56
1165.36	6260.01
1168.26	5009.02
1171.15	3913.96
1174.04	3154.47
1176.93	2297.67
1179.83	1689.3
1182.72	1250.27
1185.61	906.609
1188.5	478.868
1191.4	308.873
1194.29	121.832
1197.18	9.35645
1200.08	129.82
1202.97	134.492
1205.86	189.44
1208.75	89.1397
1211.65	71.6846
1214.54	238.276
1217.43	536.257
1220.32	592.441
1223.22	447.296
1226.11	444.323
1229	195.467
1231.89	0
