Measurement: Raman, 532 nm, unoriented, Raman Data Processed
Mineral: Titanite
Rruff sample: R050039
Ideal chemistry: CaTi^4+^SiO_5_
Locality: Kingman, Arizona, USA
Source: University of Arizona Mineral Museum
Description: Black fragment from a single crystal
Measured chemistry: (Ca_0.95_Y_0.05_)(Ti_0.85_Al_0.10_Fe^3+^_0.06_)Si_1.00_O_4_(O_0.93_F_0.07_)
Raman shift (cm-1)	intensity
174.25	0
177.143	152.413
180.035	111.754
182.928	39.7588
185.821	37.1709
188.713	86.9629
191.606	222.57
194.499	499.694
197.391	873.688
200.284	1443.54
203.177	2021.16
206.07	2924.57
208.962	4020.87
211.855	5308.76
214.748	6980.22
217.64	8920.71
220.533	11105
223.426	13754.6
226.318	16446.6
229.211	19273.2
232.104	21913
234.996	24304.3
237.889	26206.5
240.782	27538.2
243.675	28510
246.567	28588.9
249.46	27919.1
252.353	26128
255.245	23392.7
258.138	20117.3
261.031	16903.2
263.923	13706.8
266.816	11057.1
269.709	8545.18
272.602	6601.43
275.494	4955.48
278.387	3548.51
281.28	2461.43
284.173	1613.28
287.065	1029.88
289.958	503.548
292.851	88.6211
295.743	146.414
298.636	202.039
301.529	213.184
304.421	108.294
307.314	64.6436
310.207	177.795
313.099	387.066
315.992	714.709
318.885	1145.75
321.778	1705.25
324.67	2106.64
327.563	2742.37
330.456	3057.55
333.348	3294.45
336.241	3273.96
339.134	3118.47
342.026	2980.5
344.919	2592.78
347.812	2333.1
350.705	2097.39
353.597	1576.13
356.49	1185.49
359.383	735.34
362.275	381.752
365.168	24.9512
368.061	3.25781
370.954	143.182
373.846	122.133
376.739	406.514
379.632	1054.91
382.524	1650.05
385.417	2492.3
388.31	3253.78
391.202	4004.03
394.095	4789.56
396.988	5284.83
399.88	5658.52
402.773	5953.4
405.666	5940.62
408.559	5945.35
411.451	5836.89
414.344	5582.56
417.237	5317.97
420.129	5138.42
423.022	4858.11
425.915	4915.04
428.808	4983.19
431.7	5349.77
434.593	5940.27
437.486	6634.55
440.378	7041.47
443.271	7295.44
446.164	7042.96
449.056	6613.77
451.949	5605.36
454.842	4537.81
457.735	3580.22
460.627	2619.75
463.52	1912.88
466.413	1444
469.305	955.92
472.198	709.76
475.091	438.803
477.983	224.76
480.876	62.543
483.769	148.881
486.661	262.978
489.554	346.287
492.447	329.69
495.34	254.502
498.232	68.4551
501.125	311.361
504.018	601.094
506.911	1599.95
509.803	2675.99
512.696	4143.03
515.589	5672.32
518.481	7596.54
521.374	9687.31
524.267	11892.6
527.159	14030.2
530.052	15661.4
532.945	16382.2
535.837	16187.9
538.73	15138.3
541.623	13512.2
544.516	11941.4
547.408	10545.2
550.301	9635.15
553.194	8794.67
556.086	8529.2
558.979	8173.82
561.872	7609.34
564.764	7320.22
567.657	6891.97
570.55	6174.67
573.443	5779.36
576.335	5465.32
579.228	5687.31
582.121	6126.65
585.013	6820.18
587.906	7571.55
590.799	8450.92
593.692	9154.11
596.584	9805.49
599.477	9977.1
602.37	9625.28
605.262	8994.64
608.155	7913.41
611.048	6714.35
613.94	5488.85
616.833	4120.97
619.726	2864.27
622.619	2021.74
625.511	1059.39
628.404	591.291
631.297	88.2793
634.189	252.961
637.082	242.435
639.975	251.031
642.867	115.644
645.76	555.432
648.653	1031.45
651.545	1454.36
654.438	1974.9
657.331	2570.08
660.224	3025.56
663.116	3582.67
666.009	3879.59
668.902	4164.38
671.794	4409.37
674.687	4436.13
677.58	4397
680.472	4200.68
683.365	4048.61
686.258	3599.35
689.151	3038.52
692.043	2565.16
694.936	2052.89
697.829	1677.1
700.721	1202.98
703.614	1010.95
706.507	622.383
709.399	344.482
712.292	201.166
715.185	17.3477
718.078	89.4023
720.97	68.6289
723.863	191.461
726.756	168.865
729.648	180.334
732.541	135.85
735.434	133.166
738.327	97.0117
741.219	56.5312
744.112	158.566
747.005	295.549
749.897	412.141
752.79	623.33
755.683	867.012
758.576	1035
761.468	1277.63
764.361	1620.31
767.254	1928.14
770.146	2262.8
773.039	2495.88
775.932	2729.76
778.824	2962.06
781.717	3100.3
784.61	3252.36
787.503	3378.54
790.395	3387.78
793.288	3406.86
796.181	3535.65
799.073	3391.93
801.966	3375.74
804.859	3266.34
807.751	3275.88
810.644	2978.33
813.537	2918.8
816.429	2707.02
819.322	2562.05
822.215	2449.53
825.108	2149.38
828	2014.62
830.893	1860.12
833.786	1788.12
836.678	1748.46
839.571	1681.41
842.464	1809.79
845.356	1872.3
848.249	1923.9
851.142	1881.74
854.035	1943.93
856.927	1913.02
859.82	1998.06
862.713	1982.14
865.605	1956.35
868.498	1966.79
871.391	1849.69
874.284	1935.78
877.176	1850.58
880.069	1742.58
882.962	1757.42
885.854	1685.82
888.747	1725.34
891.64	1777.26
894.533	1852.09
897.425	1787.97
900.318	1867.77
903.211	1807.31
906.103	1746.44
908.996	1545.44
911.889	1425.44
914.781	1210.6
917.674	883.48
920.567	741.676
923.46	480.597
926.352	340.721
929.245	121.235
932.138	1.13379
935.03	90.9131
937.923	109.958
940.816	175.036
943.708	217.51
946.601	114.769
949.494	144.627
952.386	76.6328
955.279	3.52539
958.172	93.9326
961.065	159.185
963.957	205.022
966.85	210.223
969.743	404.824
972.635	448.074
975.528	607.521
978.421	627.425
981.313	796.531
984.206	698.043
987.099	862.559
989.992	925.584
992.884	933.063
995.777	980.629
998.67	951.111
1001.56	942.792
1004.46	921.198
1007.35	847.831
1010.24	780.918
1013.13	742.85
1016.03	653.707
1018.92	580.527
1021.81	579.029
1024.7	484.199
1027.6	392.46
1030.49	287.852
1033.38	327.495
1036.28	245.81
1039.17	216.445
1042.06	200.36
1044.95	179.163
1047.85	151.508
1050.74	121.142
1053.63	96.7402
1056.52	148.703
1059.42	116.717
1062.31	66.9624
1065.2	113.386
1068.09	91.1079
1070.99	63.3506
1073.88	75.3911
1076.77	57.7602
1079.66	73.7949
1082.56	46.5845
1085.45	20.3252
1088.34	11.9529
1091.24	31.9214
1094.13	11.9219
1097.02	6.31836
1099.91	10.3709
1102.81	5.99854
1105.7	22.8047
1108.59	6.50537
1111.48	6.77319
1114.38	38.3389
1117.27	11.2607
1120.16	36.5342
1123.06	38.6565
1125.95	27.5525
1128.84	60.3191
1131.73	51.6267
1134.63	39.9492
1137.52	81.7498
1140.41	73.5864
1143.31	62.3491
1146.2	68.1499
1149.09	70.2285
1151.98	55.6907
1154.88	89.5288
1157.77	51.8977
1160.66	31.385
1163.55	44.3543
1166.45	45.5759
1169.34	26.281
1172.23	26.2815
1175.12	29.0239
1178.02	4.08154
1180.91	38.4783
1183.8	55.5415
1186.69	42.604
1189.59	38.096
1192.48	13.1946
1195.37	62.5615
1198.27	58.8193
1201.16	18.9429
1204.05	9.6167
1206.94	21.8171
1209.84	15.9812
1212.73	26.1182
1215.62	6.5918
1218.52	23.4111
1221.41	8.94434
1224.3	7.03369
1227.19	9.00317
1230.09	7.06177
1232.98	3.76807
1235.87	24.698
1238.76	11.4775
1241.66	4.18701
1244.55	23.3127
1247.44	47.7266
1250.34	37.9517
1253.23	11.4492
1256.12	21.5444
1259.01	0.46875
1261.91	25.8638
1264.8	27.72
1267.69	38.8552
1270.58	19.9736
1273.48	12.7827
1276.37	21.8662
1279.26	80.8958
1282.15	24.8943
1285.05	21.6274
1287.94	59.571
1290.83	27.1555
1293.72	61.9592
1296.62	11.6711
