Measurement: Raman, 780 nm, unoriented, Raman Data Processed
Mineral: Titanite
Rruff sample: R040033
Ideal chemistry: CaTi^4+^SiO_5_
Locality: Brazil
Source: University of Arizona Mineral Museum
Description: Green flattened wedge-shaped single crystals
Measured chemistry: (Ca_0.97_Fe^3+^_0.03_)_Σ=1_(Ti_0.97_Al_0.03_)_Σ=1_Si_1.00_O_5_; Fe^3+^ assigned for charge balance
Raman shift (cm-1)	intensity
106.081	0
109.456	97.094
112.831	240.758
116.205	226.127
119.58	49.2353
122.955	113.273
126.33	100.179
129.705	96.9309
133.079	29.7986
136.454	82.8159
139.829	129.558
143.204	628.513
146.579	606.641
149.953	410.519
153.328	787.607
156.703	1657.82
160.078	2626.37
163.453	2839.42
166.828	1945.67
170.202	945.062
173.577	422.648
176.952	253.293
180.327	224.151
183.702	220.115
187.077	147.631
190.451	111.58
193.826	260.469
197.201	561.562
200.576	853.457
203.951	1198.69
207.325	1519.74
210.7	1791.13
214.075	1914.65
217.45	2067.6
220.825	2301.42
224.199	2598.68
227.574	2829.51
230.949	3019.58
234.324	3103.89
237.699	2949.25
241.073	3095.15
244.448	3720.65
247.823	4472.29
251.198	4854.21
254.573	4631.32
257.948	3950.14
261.322	2925.79
264.697	1856.97
268.072	990.222
271.447	375.301
274.822	11.7461
278.197	152.427
281.571	125.175
284.946	104.402
288.321	443.69
291.696	606.464
295.071	638.84
298.445	1058.75
301.82	1819.9
305.195	2523.59
308.57	2939.91
311.945	3227.49
315.32	3454.12
318.694	3261.57
322.069	2676.59
325.444	2328.63
328.819	2307.36
332.194	2470.42
335.568	2448.4
338.943	2175.68
342.318	1840.52
345.693	1610.03
349.068	1500.55
352.442	1352.82
355.817	1027.95
359.192	771.286
362.567	617.274
365.942	477.469
369.317	337.091
372.691	199.006
376.066	91.1471
379.441	1.60864
382.816	38.7466
386.191	1.0813
389.565	6.62903
392.94	19.4115
396.315	40.3976
399.69	10.4016
403.065	146.565
406.44	348.03
409.814	582.059
413.189	864.626
416.564	1248.67
419.939	1653.34
423.314	1917.24
426.688	1790.42
430.063	1489.79
433.438	1297.36
436.813	1191.75
440.188	1173.7
443.562	1175.01
446.937	1293.31
450.312	1497.51
453.687	1765.31
457.062	2156.2
460.437	2687.86
463.811	3277.95
467.186	3521.1
470.561	2791.45
473.936	1539.43
477.311	673.929
480.685	251.707
484.06	75.6931
487.435	12.6898
490.81	11.6942
494.185	15.9553
497.56	0.335815
500.934	26.2168
504.309	42.2089
507.684	5.3606
511.059	86.9089
514.434	213.086
517.808	370.212
521.183	534.813
524.558	752.749
527.933	1028.6
531.308	1397.17
534.683	1786.66
538.057	2099.03
541.432	2254.07
544.807	2241.22
548.182	2051.99
551.557	1702.89
554.932	1196.34
558.306	658.308
561.681	261.466
565.056	21.0959
568.431	135.074
571.806	21.8037
575.18	384.475
578.555	936.633
581.93	1654.29
585.305	2572.23
588.68	3692.69
592.054	4935.42
595.429	6294.27
598.804	7638.15
602.179	8758.44
605.554	9430.7
608.928	9524.03
612.303	9010.52
615.678	8119.34
619.053	6968.41
622.428	5921.64
625.803	4930.34
629.177	4066.09
632.552	3327.45
635.927	2714.92
639.302	2166.3
642.677	1761.22
646.052	1445.93
649.426	1178.45
652.801	974.568
656.176	809.654
659.551	648.464
662.926	530.472
666.3	399.878
669.675	316.171
673.05	239.347
676.425	177.332
679.8	118.124
683.174	70.3726
686.549	42.1509
689.924	32.2582
693.299	12.2076
696.674	5.92712
700.048	13.7527
703.423	25.3728
706.798	25.3153
710.173	27.2703
713.548	26.0303
716.923	4.81506
720.297	7.20032
723.672	2.68774
727.047	12.8366
730.422	12.9807
733.797	21.4055
737.172	25.0471
740.546	25.3812
743.921	31.2955
747.296	38.7879
750.671	44.467
754.046	56.3772
757.42	63.0277
760.795	63.849
764.17	64.9224
767.545	67.9566
770.92	62.8882
774.294	61.3008
777.669	55.5367
781.044	52.6249
784.419	46.4558
787.794	44.3293
791.169	42.0396
794.543	45.698
797.918	37.8367
801.293	38.0135
804.668	42.2774
808.043	50.3315
811.418	60.2041
814.792	73.6603
818.167	89.0151
821.542	100.075
824.917	117.895
828.292	138.5
831.666	176.305
835.041	236.559
838.416	333.897
841.791	452.564
845.166	599.595
848.54	767.16
851.915	928.489
855.29	995.442
858.665	921.034
862.04	756.968
865.415	618.493
868.789	543.264
872.164	482.924
875.539	390.344
878.914	296.006
882.289	209.625
885.663	143.559
889.038	100.129
892.413	67.7042
895.788	51.1209
899.163	50.0222
902.538	60.0924
905.912	71.5563
909.287	85.847
912.662	81.4585
916.037	51.4453
919.412	19.4875
922.786	0.726471
926.161	6.41544
929.536	13.234
932.911	12.968
936.286	8.39481
939.66	1.61766
943.035	0.378754
946.41	4.18497
949.785	13.4958
953.16	22.9509
956.534	33.1945
959.909	42.3462
963.284	44.3707
966.659	53.3362
970.034	61.8143
973.409	73.7575
976.783	80.6913
980.158	90.3761
983.533	96.726
986.908	107.71
990.283	115.377
993.658	111.604
997.032	115.504
1000.41	119.926
1003.78	127.91
1007.16	139.18
1010.53	145.522
1013.91	142.686
1017.28	133.725
1020.66	114.631
1024.03	98.8262
1027.41	70.7967
1030.78	41.2856
1034.15	24.0246
1037.53	8.96834
1040.9	8.69852
1044.28	3.52637
1047.65	0.308861
1051.03	0.036415
1054.4	0.64904
1057.78	1.93981
1061.15	0.672653
1064.53	0.669456
1067.9	0.554131
1071.28	4.28799
1074.65	5.8678
1078.03	5.58656
1081.4	6.13084
1084.78	11.7189
1088.15	12.4345
1091.53	8.7341
1094.9	13.6275
1098.28	11.725
1101.65	11.0687
1105.03	10.637
1108.4	10.4982
1111.78	7.54931
1115.15	7.00822
1118.53	7.4409
1121.9	6.39246
1125.28	7.28481
1128.65	4.37897
1132.03	6.09376
1135.4	2.85482
1138.78	3.47084
1142.15	5.33772
1145.52	3.09544
1148.9	2.46842
1152.27	4.27888
1155.65	1.95155
1159.02	0.754478
1162.4	1.36634
1165.77	0.270149
1169.15	2.47241
1172.52	3.44066
1175.9	0.352821
1179.27	2.3335
1182.65	2.59226
1186.02	1.48935
1189.4	0.232262
1192.77	1.28229
1196.15	4.46729
1199.52	0.602097
1202.9	2.41228
1206.27	0.528694
1209.65	0.92733
1213.02	3.24197
1216.39	1.66595
1219.77	0.554436
1223.14	1.09821
1226.52	0.583321
1229.89	0.571075
1233.27	0.800812
1236.64	0.727554
1240.02	2.12322
1243.39	0.339798
1246.77	1.15498
1250.14	0.902893
1253.52	1.13226
1256.89	1.43538
1260.27	1.07471
1263.64	3.64976
1267.02	0.956566
1270.39	3.04924
1273.77	2.52473
1277.14	1.33113
1280.52	0
