Measurement: Raman, 785 nm, unoriented, Raman Data Processed
Mineral: Titanowodginite
Rruff sample: R061033
Ideal chemistry: Mn^2+^Ti^4+^Ta^5+^_2_O_8_
Locality: Tanco pegmatite, Manitoba, Canada
Source: Michael Scott
Description: Black crystal fragments embedded in beryl and associated with muscovite
Raman shift (cm-1)	intensity
126.831	0
129.724	722.765
132.617	1514.88
135.509	919.426
138.402	17.241
141.295	43.1851
144.188	608.038
147.08	1152.93
149.973	1360.85
152.866	842.629
155.758	681.419
158.651	635.322
161.544	697.681
164.436	771.866
167.329	542.968
170.222	439.687
173.114	364.654
176.007	262.426
178.9	158.268
181.793	148.235
184.685	186.548
187.578	150.053
190.471	123.044
193.363	99.688
196.256	152.588
199.149	125.011
202.042	59.7549
204.934	85.0842
207.827	42.1182
210.72	11.5278
213.612	15.7764
216.505	9.67725
219.398	15.6802
222.29	16.8811
225.183	23.2515
228.076	4.72095
230.969	0.625244
233.861	29.2273
236.754	8.8313
239.647	18.1101
242.539	28.6907
245.432	29.6057
248.325	24.3245
251.217	21.47
254.11	89.407
257.003	87.1621
259.896	89.4556
262.788	126.23
265.681	151.168
268.574	141.127
271.466	126.602
274.359	132.733
277.252	116.176
280.144	112.659
283.037	171.583
285.93	148.953
288.822	163.101
291.715	141.575
294.608	127.66
297.5	158.015
300.393	121.878
303.286	139.451
306.179	109.007
309.071	127.029
311.964	81.072
314.857	71.2876
317.749	45.0669
320.642	2.4541
323.535	16.0898
326.428	17.8269
329.32	9.32373
332.213	28.4959
335.106	14.3372
337.998	2.70801
340.891	4.8772
343.784	17.7349
346.676	4.86792
349.569	20.1204
352.462	4.65845
355.354	23.6067
358.247	6.58179
361.14	19.9373
364.033	26.5054
366.925	69.1706
369.818	123.495
372.711	177.3
375.603	243.15
378.496	261.211
381.389	231.172
384.281	212.354
387.174	199.804
390.067	184.286
392.96	161.429
395.852	164.903
398.745	138.068
401.638	131.705
404.53	131.45
407.423	128.797
410.316	102.613
413.209	155.974
416.101	122.553
418.994	125.538
421.887	129.991
424.779	205.734
427.672	227.212
430.565	208.101
433.457	173.037
436.35	144.111
439.243	147.52
442.135	143.432
445.028	115.507
447.921	123.379
450.814	112.549
453.706	88.1233
456.599	121.102
459.492	72.4739
462.384	75.9707
465.277	98.0818
468.17	82.5125
471.062	60.6846
473.955	100.67
476.848	50.4475
479.74	94.7678
482.633	98.0391
485.526	53.1106
488.419	100.147
491.311	52.6404
494.204	69.1692
497.097	42.4665
499.989	25.2698
502.882	52.3013
505.775	37.2859
508.668	6.20361
511.56	8.46655
514.453	22.3269
517.346	24.2021
520.238	9.40771
523.131	15.4719
526.024	8.35229
528.916	40.3962
531.809	12.0525
534.702	25.4297
537.595	0.174561
540.487	25.0896
543.38	34.05
546.273	58.7383
549.165	56.7263
552.058	160.959
554.951	159.186
557.843	190.791
560.736	202.49
563.629	221.992
566.521	214.994
569.414	167.248
572.307	201.522
575.2	249.281
578.092	233.943
580.985	231.7
583.878	228.07
586.77	195.212
589.663	221.617
592.556	152.996
595.448	149.097
598.341	97.9746
601.234	129.649
604.127	140.387
607.019	135.74
609.912	166.198
612.805	93.3728
615.697	100.432
618.59	170.735
621.483	158.713
624.375	143.436
627.268	180.847
630.161	239.919
633.053	249.387
635.946	261.907
638.839	300.733
641.732	315.268
644.624	339.048
647.517	349.988
650.41	379.708
653.302	342.711
656.195	350.163
659.088	349.727
661.981	326.755
664.873	299.184
667.766	269.378
670.659	268.615
673.551	228.808
676.444	217.329
679.337	177.325
682.229	177.543
685.122	134.682
688.015	119.593
690.908	79.644
693.8	55.904
696.693	56.2593
699.586	15.6379
702.478	15.053
705.371	60.635
708.264	18.3433
711.156	19.2485
714.049	2.33228
716.942	10.8831
719.835	8.2749
722.727	13.1065
725.62	26.5757
728.513	42.9343
731.405	35.3638
734.298	69.1733
737.191	99.6111
740.083	142.429
742.976	115.029
745.869	128.309
748.761	162.379
751.654	175.018
754.547	165.661
757.44	145.951
760.332	191.519
763.225	182.547
766.118	189.085
769.01	170.228
771.903	193.648
774.796	227.437
777.688	174.117
780.581	213.474
783.474	220.691
786.367	253.854
789.259	252.557
792.152	261.573
795.045	258.607
797.937	263.394
800.83	209.726
803.723	241.368
806.615	296.33
809.508	353.632
812.401	324.313
815.294	401.26
818.186	432.3
821.079	384.455
823.972	474.744
826.864	454.425
829.757	496.168
832.65	532.406
835.542	559.048
838.435	573.599
841.328	562.499
844.221	646.531
847.113	648.898
850.006	700.707
852.899	776.261
855.791	757.837
858.684	824.268
861.577	838.835
864.469	888.516
867.362	862.854
870.255	809.176
873.148	720.187
876.04	619.885
878.933	494.704
881.826	380.87
884.718	255.428
887.611	162.447
890.504	114.415
893.396	37.2502
896.289	10.7233
899.182	30.6721
902.074	31.7533
904.967	28.4343
907.86	20.2199
910.753	16.0298
913.645	10.4329
916.538	5.94641
919.431	24.3364
922.323	10.2684
925.216	30.6998
928.109	34.776
931.001	58.8827
933.894	37.9639
936.787	70.3538
939.68	97.2058
942.572	86.8623
945.465	99.0326
948.358	128.616
951.25	100.703
954.143	119.27
957.036	109.622
959.928	104.041
962.821	113.539
965.714	117.204
968.607	118.758
971.499	119.522
974.392	116.009
977.285	108.141
980.177	95.8238
983.07	90.6213
985.963	97.1313
988.856	41.9408
991.748	71.9979
994.641	68.54
997.534	73.8435
1000.43	72.0101
1003.32	40.558
1006.21	58.4638
1009.1	88.6619
1012	54.341
1014.89	53.6662
1017.78	11.2249
1020.67	38.0413
1023.57	9.80469
1026.46	10.8825
1029.35	28.2104
1032.25	28.851
1035.14	44.3937
1038.03	10.9929
1040.92	50.9553
1043.82	46.9308
1046.71	41.1017
1049.6	26.2069
1052.49	37.6617
1055.39	35.1946
1058.28	43.3522
1061.17	7.74628
1064.07	18.8604
1066.96	33.0128
1069.85	22.6094
1072.74	22.6247
1075.64	6.25781
1078.53	23.2539
1081.42	19.5042
1084.31	15.8345
1087.21	0.498596
1090.1	4.7063
1092.99	6.7204
1095.88	15.7546
1098.78	3.97357
1101.67	24.3273
1104.56	14.7515
1107.46	34.8493
1110.35	14.169
1113.24	17.1486
1116.13	22.1498
1119.03	14.3132
1121.92	49.0829
1124.81	20.345
1127.7	1.08594
1130.6	36.9044
1133.49	39.7
1136.38	4.15295
1139.28	24.9145
1142.17	31.5274
1145.06	2.0415
1147.95	41.12
1150.85	40.9195
1153.74	49.0574
1156.63	24.0276
1159.53	42.8772
1162.42	18.2419
1165.31	54.5103
1168.2	49.0435
1171.1	32.891
1173.99	4.56128
1176.88	37.0122
1179.77	22.2333
1182.67	12.5233
1185.56	16.6517
1188.45	20.7186
1191.34	35.7674
1194.24	30.5864
1197.13	66.4994
1200.02	20.4328
1202.91	29.1616
1205.81	6.41376
1208.7	55.217
1211.59	16.348
1214.49	50.1774
1217.38	40.0558
1220.27	47.8015
1223.16	37.2165
1226.06	49.2584
