Measurement: Raman, 514 nm, unoriented, Raman Data Processed
Mineral: Titanite
Rruff sample: R050114
Ideal chemistry: CaTi^4+^SiO_5_
Locality: Isthak Valley Iskardu, Northern Areas Gilgit, Pakistan
Source: Syed Shah
Description: Yellowish-brown fragment
Measured chemistry: (Ca_0.99_Na_0.01_)(Ti_0.96_Al_0.03_Fe^3+^_0.01_)Si_1.00_O_4_(O_0.95_F_0.05_)
Raman shift (cm-1)	intensity
101.732	0
105.908	107.536
110.082	103.995
114.254	23.753
118.424	0.167
122.592	56.242
126.758	415.757
130.922	929.474
135.083	1862.44
139.243	7015.51
143.401	15448.7
147.557	7103.33
151.711	3654.74
155.863	4443.45
160.013	6342.67
164.161	6806.12
168.308	5174.9
172.452	4482.65
176.594	4438.86
180.734	4647.81
184.872	4617.39
189.008	4742.06
193.143	5457.1
197.275	6621.55
201.405	8093.36
205.534	9170.49
209.66	8956.33
213.784	9125.04
217.907	9845.75
222.027	10650.5
226.146	12086.4
230.263	14126.5
234.377	16752.6
238.49	12381.9
242.601	11119.8
246.709	12388.6
250.816	13315.7
254.921	12917.6
259.024	11567.1
263.125	9210.04
267.224	7326.71
271.321	6035.85
275.416	5083.83
279.51	5340.92
283.601	6726.3
287.69	9147.34
291.778	10615.3
295.863	9736.07
299.947	8845.42
304.029	9855.18
308.108	11759.1
312.186	17101
316.262	25194.8
320.336	22943.3
324.408	17829.4
328.478	15659.1
332.546	15344.2
336.612	12536.8
340.677	10473.6
344.739	12351.7
348.799	20012.8
352.858	22694
356.915	13313.4
360.969	7067.77
365.022	4243.21
369.073	2607.66
373.122	1143.16
377.169	191.691
381.215	182.798
385.258	255.719
389.299	32.085
393.339	95.637
397.376	74.579
401.412	225.028
405.446	163.307
409.478	131.223
413.508	448.729
417.536	1459.14
421.562	3143.56
425.586	3396.13
429.609	2275.98
433.629	1157.32
437.648	308.181
441.665	252.462
445.68	434.646
449.693	421.156
453.704	179.68
457.713	560.667
461.721	1887.93
465.726	3494.69
469.73	4597.74
473.731	4599.07
477.731	3819.69
481.729	3775.62
485.725	4276.88
489.72	4728.47
493.712	4685.42
497.703	4421.72
501.691	3971.39
505.678	3609.44
509.663	3481.87
513.646	3799.69
517.627	4344.92
521.607	4892.55
525.584	5376.61
529.56	6293.1
533.534	7223.03
537.506	8371.41
541.476	8709.56
545.444	8609.04
549.41	7829.76
553.375	6543.5
557.337	5498.03
561.298	5675.28
565.257	7882.2
569.214	10843.3
573.17	13123.9
577.123	15914
581.075	19340.8
585.024	23233.4
588.972	28346.8
592.918	33739.1
596.863	39691.5
600.805	43382.9
604.746	44884
608.685	42779.1
612.621	38947
616.557	34338.9
620.49	29785.6
624.421	25575
628.351	22684.6
632.279	19925.8
636.205	16982.9
640.129	15195
644.051	13236.9
647.972	12205.4
651.89	10406.3
655.807	9592.02
659.722	8405.14
663.636	7629.94
667.547	6907.1
671.457	6033.07
675.365	5419.84
679.271	5028.4
683.175	4437.76
687.077	3971.91
690.978	3486.86
694.877	3317.59
698.774	2676.32
702.669	2428.36
706.562	2241.56
710.454	1912.8
714.344	1469.29
718.232	1235.18
722.118	988.531
726.002	748.347
729.885	717.188
733.766	397.719
737.645	278.924
741.522	326.788
745.397	349.297
749.271	147.429
753.143	89.857
757.013	101.646
760.881	229.517
764.748	147.61
768.613	357.922
772.476	301.181
776.337	30.412
780.196	130.534
784.054	502.528
787.91	807.961
791.764	1226.16
795.616	2011.12
799.467	2336.38
803.316	3079.54
807.163	4074.72
811.008	4955.68
814.851	5825.96
818.693	6226.36
822.533	6642.92
826.371	6954.6
830.208	7510.54
834.042	7586.69
837.875	8950.13
841.706	11296.9
845.536	15384
849.363	20385.2
853.189	26783.4
857.013	30295.4
860.836	27581.3
864.656	24745.1
868.475	24376.6
872.292	26251
876.108	26529.2
879.922	28535
883.733	32296.6
887.544	33380.9
891.352	27690.9
895.159	19008.5
898.964	12515.8
902.767	8935.44
906.568	7141.12
910.368	5983.31
914.166	4514.62
917.962	2995.06
921.757	1656.65
925.55	803.342
929.341	304.347
933.13	37.245
936.918	251.373
940.703	271.707
944.488	367.765
948.27	262.571
952.051	14.846
955.83	174.966
959.607	419.673
963.383	1302.32
967.156	2350.66
970.928	3107.75
974.699	3764.2
978.468	3640.29
982.234	3168.06
986	3139.12
989.763	3058.35
993.525	3105.23
997.285	3075.55
1001.04	3203.54
1004.8	2942.17
1008.55	2961.49
1012.31	3124.19
1016.06	3273.27
1019.81	3649.73
1023.56	4308.56
1027.31	4817.77
1031.05	5078.36
1034.79	5078.76
1038.53	5000.69
1042.27	4410.43
1046.01	3614.56
1049.75	3091.08
1053.48	2489.01
1057.22	2038.36
1060.95	1571.27
1064.68	1397.88
1068.4	1317.34
1072.13	1466.6
1075.86	2008.66
1079.58	3180.24
1083.3	4337.27
1087.02	6063.68
1090.74	5966.94
1094.45	4444.91
1098.17	2595.07
1101.88	1065.19
1105.59	717.784
1109.3	351.979
1113.01	186.793
1116.71	46.286
1120.42	84.574
1124.12	59.065
1127.82	14.271
1131.52	33.24
1135.22	67.455
1138.91	81.458
1142.61	51.597
1146.3	26.545
1149.99	155.279
1153.68	591.773
1157.37	1536.08
1161.06	2892.2
1164.74	4298.15
1168.42	7054.94
1172.1	11318.6
1175.78	17322
1179.46	19736.3
1183.14	16753.3
1186.81	12482.3
1190.48	10629
1194.15	11155.6
1197.83	12582.1
1201.49	11835.5
1205.16	10676.7
1208.82	9945.75
1212.49	10072.7
1216.15	9176.55
1219.81	8031.27
1223.46	7673.06
1227.12	8647.43
1230.78	9485.15
1234.43	10227.1
1238.08	10342.2
1241.73	10036.9
1245.38	9878.23
1249.03	8841.31
1252.67	7786.56
1256.31	6319.08
1259.95	5229.48
1263.6	4383.64
1267.23	3722.23
1270.87	3231.09
1274.51	3007.27
1278.14	2699.18
1281.77	2735.82
1285.4	2897.02
1289.03	3196.92
1292.66	3862.33
1296.28	4684.91
1299.91	5411.07
1303.53	5638.46
1307.15	5609.99
1310.77	5368.34
1314.38	4755.85
1318	4692.95
1321.61	4101.26
1325.23	3577.47
1328.84	2977.81
1332.45	2338.69
1336.06	1897.68
1339.66	1479.54
1343.27	1426.23
1346.87	1123.66
1350.47	863.816
1354.07	897.867
1357.67	824.893
1361.26	649.293
1364.86	351.852
1368.45	301.615
1372.04	128.109
1375.63	98.566
1379.22	82.381
1382.81	131.047
1386.39	220.457
1389.98	183.297
1393.56	89.887
1397.14	21.555
1400.72	123.043
1404.3	222.439
1407.87	170.234
1411.45	118.322
1415.02	527.652
1418.59	614.041
1422.16	891.521
1425.73	1083.25
1429.29	1419.32
1432.86	1836.77
1436.42	2245.67
1439.98	2458.09
1443.54	2797.15
1447.1	3051.54
1450.66	3037.2
1454.21	2899.27
1457.77	2723.97
1461.32	2473.12
1464.87	2176.95
1468.42	1912.47
1471.96	1485.65
1475.51	1228.74
1479.06	868.975
1482.6	732.492
1486.14	471.084
1489.68	446.471
1493.22	448.281
1496.75	404.885
1500.29	154.242
1503.82	159.867
1507.35	2.875
1510.88	89.42
1514.41	292.646
1517.94	189.824
1521.46	175.99
1524.99	0
