Measurement: Raman, 785 nm, unoriented, Raman Data Processed
Mineral: Tlapallite
Rruff sample: R060888
Ideal chemistry: H_6_Ca_2_Cu^2+^_3_S^6+^O_4_(Te^4+^O_3_)_4_(Te^6+^O_6_)
Locality: La Oriental mine, Moctezuma, Sonora, Mexico
Source: Bob Jenkins
Description: Apple green botryoidal crust
Raman shift (cm-1)	intensity
175.042	0
177.935	90.9595
180.828	45.9966
183.72	110.393
186.613	113.44
189.506	101.085
192.399	4.05615
195.291	0.853027
198.184	17.542
201.077	79.6528
203.969	98.5376
206.862	85.3384
209.755	67.4863
212.648	148.449
215.54	263.269
218.433	347.515
221.326	494.205
224.218	522.773
227.111	440.741
230.004	452.986
232.896	397.095
235.789	387.323
238.682	383.229
241.575	373.544
244.467	405.438
247.36	486.127
250.253	522.562
253.145	574.268
256.038	567.796
258.931	388.952
261.823	302.549
264.716	205.709
267.609	140.666
270.502	125.469
273.394	112.039
276.287	187.151
279.18	217.935
282.072	317.842
284.965	374.012
287.858	361.004
290.75	289.503
293.643	222.984
296.536	157.069
299.428	141.577
302.321	154.733
305.214	182.227
308.107	227.08
310.999	138.35
313.892	95.71
316.785	33.7022
319.677	26.9258
322.57	17.5088
325.463	87.0054
328.356	51.7246
331.248	47.25
334.141	53.5156
337.034	28.269
339.926	6.09375
342.819	23.4512
345.712	39.3955
348.604	71.9087
351.497	133.525
354.39	79.3887
357.283	36.356
360.175	0.955078
363.068	16.354
365.961	45.1655
368.853	67.3579
371.746	69.5098
374.639	72.4795
377.531	126.379
380.424	53.5562
383.317	12.4468
386.209	16.2568
389.102	17.4946
391.995	65.7739
394.888	92.6216
397.78	101.703
400.673	71.7295
403.566	116.272
406.458	87.8042
409.351	111.129
412.244	187.226
415.137	264.943
418.029	314.328
420.922	391.222
423.815	352.03
426.707	402.512
429.6	339.335
432.493	363.811
435.385	356.925
438.278	361.194
441.171	317.654
444.063	301.74
446.956	248.935
449.849	203.379
452.742	159.158
455.634	93.5283
458.527	129.977
461.42	63.0239
464.312	166.002
467.205	128.832
470.098	179.525
472.99	175.77
475.883	169.218
478.776	116.809
481.669	177.56
484.561	152.264
487.454	202.394
490.347	315.403
493.239	305.976
496.132	433.966
499.025	521.843
501.918	508.483
504.81	533.047
507.703	509.959
510.596	438.82
513.488	373.77
516.381	314.262
519.274	289.873
522.166	280.731
525.059	172.351
527.952	150.522
530.845	54.3945
533.737	41.9756
536.63	33.1938
539.523	62.0669
542.415	28.7295
545.308	40.7695
548.201	20.6211
551.093	38.0879
553.986	24.4092
556.879	49.6187
559.771	18.4214
562.664	44.5942
565.557	5.20752
568.45	38.147
571.342	33.5913
574.235	2.83496
577.128	38.04
580.02	10.1758
582.913	11.4873
585.806	50.5952
588.699	63.9575
591.591	114.023
594.484	19.5244
597.377	50.0386
600.269	41.4126
603.162	77.0312
606.055	65.4404
608.947	52.9966
611.84	20.7803
614.733	21.7324
617.626	68.7388
620.518	3.82031
623.411	45.7749
626.304	0.485352
629.196	43.5532
632.089	36.311
634.982	26.4224
637.875	90.7104
640.767	116.835
643.66	141.948
646.553	150.923
649.445	129.711
652.338	158.256
655.231	135.69
658.123	176.308
661.016	190.921
663.909	137.483
666.802	256.964
669.694	214.74
672.587	231.481
675.48	268.131
678.372	362.337
681.265	304.567
684.158	308.987
687.05	384.019
689.943	423.585
692.836	409.807
695.729	519.814
698.621	538.053
701.514	534.073
704.407	475.157
707.299	355.823
710.192	280.067
713.085	112.12
715.977	93.1289
718.87	54.0586
721.763	16.9473
724.655	30.3911
727.548	5.98584
730.441	36.7466
733.334	73.3735
736.226	48.0483
739.119	162.492
742.012	235.93
744.904	259.94
747.797	441.81
750.69	545.881
753.582	651.543
756.475	730.587
759.368	766.875
762.261	884.243
765.153	895.348
768.046	1001.43
770.939	1065.07
773.831	1205.77
776.724	1183.69
779.617	1260.56
782.51	1271.51
785.402	1302.12
788.295	1154.8
791.188	1065.19
794.08	878.558
796.973	749.597
799.866	550.912
802.758	417.098
805.651	288.639
808.544	224.867
811.437	160.277
814.329	67.2412
817.222	38.4395
820.115	67.4834
823.007	21.499
825.9	32.8911
828.793	17.9565
831.685	5.03271
834.578	6.58936
837.471	19.4912
840.364	11.5435
843.256	16.084
846.149	7.6709
849.042	39.6143
851.934	21.6909
854.827	18.6069
857.72	13.5903
860.612	60.6006
863.505	73.9292
866.398	37.5151
869.29	0.748535
872.183	73.3106
875.076	59.4263
877.969	79.2383
880.861	146.008
883.754	92.5396
886.647	10.7666
889.539	28.5596
892.432	79.1558
895.325	151.076
898.217	108.961
901.11	113.09
904.003	52.294
906.896	54.9014
909.788	100.002
912.681	90.7485
915.574	64.958
918.466	24.9473
921.359	15.0571
924.252	52.4912
927.145	69.4141
930.037	51.3735
932.93	110.388
935.823	68.6836
938.715	52.9482
941.608	64.9238
944.501	63.0537
947.394	28.293
950.286	80.9853
953.179	114.78
956.072	185.019
958.964	203.134
961.857	301.863
964.75	363.267
967.642	467.431
970.535	486.312
973.428	395.889
976.321	233.531
979.213	209.759
982.106	121.989
984.999	96.7602
987.891	83.7871
990.784	31.9341
993.677	4.50684
996.569	63.8052
999.462	55.6108
1002.36	78.9981
1005.25	7.63184
1008.14	0.191895
1011.03	69.0923
1013.93	60.3477
1016.82	48.3164
1019.71	30.4077
1022.6	41.4121
1025.5	1.56397
1028.39	22.1172
1031.28	15.0278
1034.17	29.9429
1037.07	104.886
1039.96	68.8164
1042.85	60.1797
1045.74	25.6143
1048.64	0.363281
1051.53	33.7602
1054.42	29.7056
1057.32	42.4473
1060.21	19.9824
1063.1	49.7861
1065.99	27.9014
1068.89	31.373
1071.78	80.5088
1074.67	29.6045
1077.57	52.5303
1080.46	52.8071
1083.35	34.7534
1086.24	65.0024
1089.14	49.4902
1092.03	66.5547
1094.92	125.887
1097.81	128.187
1100.71	98.3799
1103.6	44.6641
1106.49	70.1758
1109.38	22.1484
1112.28	68.4131
1115.17	35.7217
1118.06	81.8584
1120.96	18.0708
1123.85	81.4712
1126.74	26.5767
1129.63	53.6782
1132.53	7.44629
1135.42	41.1855
1138.31	66.2671
1141.2	55.2549
1144.1	42.6333
1146.99	33.1123
1149.88	48.1992
1152.78	68.5015
1155.67	40.8633
1158.56	43.377
1161.45	63.9893
1164.35	99.6914
1167.24	56.5757
1170.13	82.7061
1173.02	78.0796
1175.92	66.999
1178.81	68.5977
1181.7	66.106
1184.6	48.4385
1187.49	44.835
1190.38	85.0454
1193.27	1.87598
1196.17	75.2305
1199.06	67.6392
1201.95	39.7192
1204.84	35.8589
1207.74	32.6704
1210.63	57.1431
1213.52	75.4556
1216.41	68.5244
1219.31	102.242
1222.2	117.789
1225.09	104.798
1227.98	99.6958
1230.88	121.585
1233.77	77.8345
1236.66	46.4463
1239.56	51.8315
1242.45	38.958
1245.34	92.4072
1248.23	73.1914
1251.13	20.9712
1254.02	51.2241
1256.91	3.72656
1259.81	41.4033
1262.7	0
