Measurement: Raman, 785 nm, unoriented, Raman Data Processed
Mineral: Tochilinite
Rruff sample: R060887
Ideal chemistry: 6(Fe^2+^_0.9_S^2-^)5[(Mg,Fe^2+^)(OH)_2_]
Locality: Cornwall, Pennsylvania, USA
Source: Bob Jenkins
Description: Black elongated prismatic crystals
Raman shift (cm-1)	intensity
162.508	0
165.401	36.4157
168.293	51.3496
171.186	60.9932
174.079	30.7036
176.971	12.358
179.864	33.1636
182.757	22.4625
185.65	47.5518
188.542	0.00708
191.435	1.19049
194.328	6.09656
197.22	15.9754
200.113	1.97669
203.006	4.55139
205.899	6.52728
208.791	14.478
211.684	5.91425
214.577	24.4638
217.469	0.849365
220.362	18.6875
223.255	35.7841
226.147	49.9441
229.04	76.9955
231.933	86.1373
234.825	99.4652
237.718	94.0409
240.611	88.4557
243.504	68.3204
246.396	31.5828
249.289	9.30035
252.182	10.5053
255.074	5.46802
257.967	15.0118
260.86	23.6604
263.752	11.012
266.645	42.2363
269.538	49.0805
272.43	67.2996
275.323	93.8171
278.216	132.918
281.109	161.08
284.001	163.622
286.894	216.44
289.787	240.964
292.679	312.366
295.572	362.344
298.465	392.641
301.358	370.514
304.25	313.485
307.143	289.043
310.036	208.425
312.928	182.99
315.821	132.207
318.714	117.049
321.606	34.6938
324.499	43.5993
327.392	27.6876
330.284	58.9928
333.177	45.7598
336.07	24.1295
338.963	23.9748
341.855	35.4191
344.748	50.1523
347.641	48.8031
350.533	63.1041
353.426	87.1599
356.319	87.8635
359.212	75.2195
362.104	78.4031
364.997	65.8049
367.89	37.6412
370.782	46.8789
373.675	15.0962
376.568	19.6389
379.46	16.4947
382.353	23.1577
385.246	7.80511
388.139	7.33289
391.031	3.25336
393.924	16.418
396.817	5.19305
399.709	12.6104
402.602	7.92206
405.495	23.9036
408.387	4.35168
411.28	12.1869
414.173	10.6602
417.065	25.6456
419.958	5.60205
422.851	29.3377
425.744	20.3367
428.636	16.0571
431.529	36.5214
434.422	23.1553
437.314	26.7518
440.207	18.2249
443.1	18.3315
445.993	16.2824
448.885	32.9983
451.778	23.3368
454.671	21.5337
457.563	23.2549
460.456	26.6614
463.349	25.2463
466.241	20.4113
469.134	11.7146
472.027	6.35205
474.92	5.91626
477.812	15.934
480.705	26.4504
483.598	15.641
486.49	28.9128
489.383	28.8431
492.276	23.5174
495.168	20.3852
498.061	13.3629
500.954	17.3907
503.846	2.84808
506.739	39.1577
509.632	14.7977
512.524	21.2741
515.417	23.126
518.31	12.9019
521.203	21.371
524.095	2.63458
526.988	20.576
529.881	10.7886
532.773	7.15591
535.666	18.0822
538.559	12.7342
541.452	18.633
544.344	12.1838
547.237	26.8027
550.13	21.6725
553.022	26.4465
555.915	24.1364
558.808	1.10519
561.7	9.64584
564.593	17.6486
567.486	26.59
570.379	5.5502
573.271	3.8299
576.164	13.7301
579.057	13.0409
581.949	34.8808
584.842	22.7989
587.735	13.3508
590.627	8.22754
593.52	0.236328
596.413	24.5438
599.306	11.9865
602.198	9.99689
605.091	18.9867
607.984	7.17188
610.876	25.1191
613.769	19.4618
616.662	7.45557
619.554	0.046753
622.447	0.614868
625.34	24.8583
628.232	0.831268
631.125	17.8798
634.018	14.4779
636.911	4.3775
639.803	17.9006
642.696	2.8381
645.589	23.8299
648.481	3.25232
651.374	3.59488
654.267	10.0839
657.159	25.1106
660.052	17.7002
662.945	31.0936
665.838	23.1986
668.73	3.09915
671.623	16.3217
674.516	5.5404
677.408	9.80499
680.301	26.2422
683.194	20.3514
686.087	17.9576
688.979	31.1641
691.872	15.1579
694.765	13.8529
697.657	28.8564
700.55	1.07782
703.443	23.0981
706.335	18.9581
709.228	28.2982
712.121	24.1651
715.014	9.15536
717.906	28.3343
720.799	24.5309
723.692	29.8142
726.584	33.5524
729.477	18.1198
732.37	26.7355
735.262	22.2294
738.155	21.9638
741.048	37.8356
743.94	37.6127
746.833	0.932526
749.726	30.6633
752.619	25.5589
755.511	11.1766
758.404	5.86053
761.297	39.0993
764.189	17.506
767.082	19.3853
769.975	0.161652
772.867	25.9486
775.76	24.5585
778.653	34.1544
781.545	18.5278
784.438	30.7501
787.331	22.7086
790.224	20.9922
793.116	14.1623
796.009	19.586
798.902	6.7861
801.794	9.41397
804.687	17.2766
807.58	12.4522
810.472	40.7352
813.365	20.4364
816.258	40.7446
819.151	25.8827
822.043	18.9889
824.936	17.5908
827.829	10.7971
830.721	23.5829
833.614	4.26135
836.507	22.9591
839.399	15.7178
842.292	15.84
845.185	9.46649
848.078	28.6763
850.97	17.3673
853.863	13.3091
856.756	10.136
859.648	11.2181
862.541	28.0164
865.434	2.60037
868.327	4.66898
871.219	5.55093
874.112	18.0236
877.005	12.8038
879.897	4.45288
882.79	3.83106
885.683	30.4515
888.575	9.70441
891.468	26.7862
894.361	16.5967
897.254	1.44189
900.146	23.9823
903.039	12.9725
905.932	25.0115
908.824	15.7727
911.717	21.5611
914.61	1.3049
917.502	3.3775
920.395	10.5225
923.288	32.3576
926.181	36.4015
929.073	7.99216
931.966	2.15124
934.859	25.8888
937.751	17.0286
940.644	36.6855
943.537	15.4368
946.429	33.5339
949.322	6.12036
952.215	3.93249
955.107	0.10257
958	9.22086
960.893	19.399
963.786	20.7085
966.678	26.839
969.571	21.2295
972.464	4.07037
975.356	25.0763
978.249	34.9397
981.142	15.2508
984.034	4.95242
986.927	4.49948
989.82	19.9929
992.713	23.6688
995.605	25.1687
998.498	19.868
1001.39	19.3783
1004.28	34.0868
1007.18	9.94147
1010.07	10.3575
1012.96	44.1227
1015.85	10.8641
1018.75	30.0901
1021.64	5.71857
1024.53	27.8228
1027.42	28.571
1030.32	28.8978
1033.21	14.8099
1036.1	29.0319
1039	12.4998
1041.89	17.8894
1044.78	19.458
1047.67	26.7501
1050.57	2.6546
1053.46	16.1881
1056.35	21.6073
1059.24	0.765778
1062.14	11.3574
1065.03	34.4988
1067.92	30.3784
1070.82	7.12958
1073.71	2.23868
1076.6	18.4752
1079.49	5.53076
1082.39	12.7184
1085.28	24.2865
1088.17	20.3897
1091.06	2.78885
1093.96	16.4496
1096.85	6.14804
1099.74	12.2066
1102.63	5.22711
1105.53	19.161
1108.42	8.42035
1111.31	29.0451
1114.21	29.9405
1117.1	20.168
1119.99	27.5521
1122.88	21.675
1125.78	14.4637
1128.67	15.4638
1131.56	6.19122
1134.45	14.3227
1137.35	23.3936
1140.24	5.43259
1143.13	0.325256
1146.03	28.0965
1148.92	33.0711
1151.81	6.05664
1154.7	46.6201
1157.6	21.9746
1160.49	1.16348
1163.38	23.9981
1166.28	31.566
1169.17	25.4717
1172.06	37.3563
1174.95	42.3611
1177.85	22.3137
1180.74	16.5053
1183.63	22.457
1186.52	11.0522
1189.42	25.2697
1192.31	25.6087
1195.2	20.6984
1198.09	19.7006
1200.99	40.4524
1203.88	29.5737
1206.77	27.2962
1209.66	23.2973
1212.56	4.71191
1215.45	27.1085
1218.34	16.9403
1221.24	0.069244
