Measurement: Raman, 532 nm, unoriented, Raman Data Processed
Mineral: Tochilinite
Rruff sample: R060887
Ideal chemistry: 6(Fe^2+^_0.9_S^2-^)5[(Mg,Fe^2+^)(OH)_2_]
Locality: Cornwall, Pennsylvania, USA
Source: Bob Jenkins
Description: Black elongated prismatic crystals
Raman shift (cm-1)	intensity
190.466	0
193.358	5.06531
196.251	28.3543
199.144	0.699768
202.036	26.4953
204.929	20.4849
207.822	1.6131
210.714	28.2849
213.607	30.8922
216.5	30.7507
219.393	46.8213
222.285	81.4199
225.178	126.682
228.071	152.375
230.963	200.89
233.856	191.032
236.749	214.356
239.642	179.779
242.534	159.631
245.427	128.43
248.32	65.1111
251.212	36.2861
254.105	19.7897
256.998	19.2762
259.89	9.09927
262.783	0.014801
265.676	18.8014
268.568	8.27228
271.461	24.0996
274.354	40.4866
277.247	72.049
280.139	84.6024
283.032	121.835
285.925	124.151
288.817	147.706
291.71	200.591
294.603	216.447
297.495	242.311
300.388	241.334
303.281	243.054
306.174	210.707
309.066	170.079
311.959	127.878
314.852	64.5717
317.744	67.7859
320.637	42.7362
323.53	10.9121
326.422	4.97369
329.315	50.0995
332.208	10.6292
335.101	23.9912
337.993	18.1405
340.886	54.5379
343.779	26.1767
346.671	28.8698
349.564	66.3503
352.457	64.1304
355.349	91.3925
358.242	63.391
361.135	79.6204
364.027	67.3997
366.92	36.2176
369.813	35.1794
372.706	32.5884
375.598	34.2771
378.491	13.7375
381.384	24.3471
384.276	9.65524
387.169	9.13254
390.062	3.42801
392.954	19.894
395.847	15.2173
398.74	9.92535
401.633	21.8607
404.525	10.9213
407.418	5.55994
410.311	14.2662
413.203	22.7433
416.096	29.1797
418.989	6.86395
421.881	28.9622
424.774	25.7719
427.667	30.1647
430.56	25.7623
433.452	23.456
436.345	7.97372
439.238	23.4174
442.13	27.8157
445.023	9.51062
447.916	35.798
450.808	25.5587
453.701	19.9361
456.594	27.1031
459.486	14.42
462.379	5.31345
465.272	5.53973
468.165	37.7467
471.057	38.6472
473.95	9.13989
476.843	17.4346
479.735	30.4523
482.628	17.8023
485.521	19.8864
488.413	11.6847
491.306	12.6001
494.199	9.92224
497.092	21.7396
499.984	15.2229
502.877	16.9838
505.77	12.4825
508.662	6.77762
511.555	15.8779
514.448	10.8506
517.341	3.63394
520.233	1.6618
523.126	26.9895
526.019	16.7231
528.911	32.5696
531.804	24.071
534.697	18.068
537.589	31.8646
540.482	17.3685
543.375	4.41617
546.268	16.4188
549.16	21.4718
552.053	30.9282
554.946	13.9085
557.838	19.706
560.731	11.7813
563.624	2.0979
566.516	33.0622
569.409	19.6334
572.302	4.21207
575.194	12.924
578.087	32.7481
580.98	26.1859
583.872	28.4994
586.765	23.7331
589.658	2.71558
592.551	26.206
595.443	17.8868
598.336	1.91299
601.229	24.5539
604.121	23.7103
607.014	29.9827
609.907	18.3208
612.799	1.64298
615.692	10.2933
618.585	22.0981
621.477	5.07877
624.37	19.4655
627.263	13.1227
630.156	14.7259
633.048	5.70264
635.941	12.6447
638.834	21.5363
641.726	12.3538
644.619	6.245
647.512	10.867
650.404	21.3454
653.297	8.13333
656.19	8.46588
659.083	21.6193
661.975	21.1971
664.868	10.086
667.761	32.3632
670.653	28.7479
673.546	0.546814
676.439	20.329
679.332	0.765411
682.224	34.9049
685.117	30.3938
688.01	20.3662
690.902	15.0553
693.795	7.2691
696.688	9.90955
699.58	0.760529
702.473	21.4709
705.366	24.1185
708.259	23.2059
711.151	21.141
714.044	27.6087
716.937	24.6662
719.829	25.4399
722.722	8.09015
725.615	18.2968
728.507	15.5773
731.4	37.8667
734.293	8.94003
737.185	28.5253
740.078	19.5695
742.971	18.0729
745.864	14.6038
748.756	33.5528
751.649	11.4739
754.542	34.0435
757.434	18.5142
760.327	25.9794
763.22	4.95645
766.112	22.2467
769.005	36.0819
771.898	20.8873
774.79	31.2433
777.683	1.05035
780.576	15.0213
783.469	14.2871
786.361	0.139984
789.254	4.49719
792.147	21.4493
795.039	22.4106
797.932	19.2758
800.825	19.451
803.717	13.9391
806.61	5.16058
809.503	23.7014
812.396	16.9076
815.288	14.7806
818.181	27.0066
821.074	0.189697
823.966	17.1703
826.859	5.95847
829.752	30.4905
832.644	20.8345
835.537	10.7185
838.43	6.08398
841.323	32.8161
844.215	2.76175
847.108	38.318
850.001	6.89777
852.893	10.096
855.786	30.8501
858.679	0.367004
861.571	20.6248
864.464	14.6138
867.357	5.9425
870.25	30.2407
873.142	9.40543
876.035	28.0161
878.928	28.4747
881.82	32.2037
884.713	37.7845
887.606	26.9043
890.498	24.5653
893.391	27.8029
896.284	39.3076
899.177	30.503
902.069	27.4527
904.962	9.79675
907.855	12.7927
910.747	14.9408
913.64	23.8853
916.533	31.2509
919.425	14.6861
922.318	11.9469
925.211	27.233
928.104	5.78659
930.996	18.8417
933.889	19.9172
936.782	25.6097
939.674	45.0144
942.567	15.3442
945.46	10.8723
948.352	29.1669
951.245	7.63892
954.138	9.46457
957.03	23.7582
959.923	23.2018
962.816	37.7892
965.709	15.7556
968.601	16.3337
971.494	12.5358
974.387	3.97537
977.279	23.4714
980.172	21.8102
983.065	10.686
985.957	11.6469
988.85	22.611
991.743	26.0161
994.635	12.2776
997.528	6.71274
1000.42	27.1876
1003.31	1.04718
1006.21	23.7789
1009.1	13.3584
1011.99	28.6962
1014.88	10.835
1017.78	7.91458
1020.67	32.5151
1023.56	27.7003
1026.45	20.612
1029.35	27.0092
1032.24	25.9131
1035.13	19.4804
1038.03	19.2256
1040.92	31.6902
1043.81	9.78983
1046.7	18.6984
1049.6	57.3794
1052.49	23.3438
1055.38	32.7392
1058.28	14.9805
1061.17	33.0662
1064.06	19.0994
1066.95	20.5791
1069.85	13.8508
1072.74	22.4829
1075.63	32.8616
1078.52	22.4551
1081.42	11.6277
1084.31	35.6056
1087.2	23.7414
1090.09	11.8456
1092.99	11.0331
1095.88	24.6675
1098.77	19.6468
1101.66	10.6392
1104.56	25.6064
1107.45	24.5225
1110.34	14.5776
1113.24	22.3171
1116.13	17.7405
1119.02	49.1257
1121.91	19.6114
1124.81	34.2205
1127.7	2.28848
1130.59	11.164
1133.48	28.7306
1136.38	22.2076
1139.27	19.7673
1142.16	21.7695
1145.06	13.45
1147.95	8.32169
1150.84	13.0166
1153.73	0.838593
1156.63	21.2239
1159.52	18.0659
1162.41	22.0583
1165.31	0.030792
1168.2	21.5406
1171.09	25.3955
1173.98	5.57898
1176.88	37.6364
1179.77	32.8868
1182.66	11.7857
1185.55	31.3938
1188.45	31.2586
1191.34	30.3478
1194.23	38.2047
1197.12	23.4175
1200.02	30.1398
1202.91	30.9044
1205.8	2.09699
1208.69	35.6054
1211.59	65.9279
1214.48	21.7861
1217.37	17.2231
1220.27	17.4835
1223.16	15.1345
1226.05	42.3054
1228.94	33.7316
1231.84	24.3831
1234.73	50.7487
1237.62	32.0666
1240.52	46.1632
1243.41	51.5639
1246.3	48.1462
1249.19	41.7088
1252.09	32.1192
1254.98	25.3923
1257.87	36.1492
1260.76	15.5079
1263.66	14.8622
1266.55	66.9057
1269.44	59.3696
1272.33	29.5204
1275.23	0.137146
1278.12	3.27271
