Measurement: Raman, 532 nm, unoriented, Raman Data Processed
Mineral: Tocornalite
Rruff sample: R070693
Ideal chemistry: (Ag^1+^,Hg^1+^)I^1-^
Locality: Block 14 Opencut, Broken Hill, Yancowinna Co., New South Wales, Australia
Source: Michael Scott
Description: Pale yellow granular
Raman shift (cm-1)	intensity
150.417	0
153.309	80.3164
156.202	185.942
159.095	162.887
161.987	179.755
164.88	230.874
167.773	326.581
170.665	222.255
173.558	178.867
176.451	36.0444
179.344	18.3926
182.236	5.46191
185.129	23.0039
188.022	14.9292
190.914	108.565
193.807	169.379
196.7	219.102
199.592	336.868
202.485	398.69
205.378	493.911
208.27	588.3
211.163	681.365
214.056	836.491
216.949	872.845
219.841	958.346
222.734	1097.11
225.627	1232.84
228.519	1229.7
231.412	1147.17
234.305	1237.65
237.197	1133.89
240.09	1133.67
242.983	1145.99
245.876	1143.49
248.768	1082.29
251.661	1081.58
254.554	936.134
257.446	906.957
260.339	806.981
263.232	746.863
266.125	866.32
269.017	630.751
271.91	529.275
274.803	389.555
277.695	337.334
280.588	316.367
283.481	245.594
286.373	217.824
289.266	140.102
292.159	154.253
295.051	50.0107
297.944	39.2334
300.837	28.2339
303.73	18.8525
306.622	10.0923
309.515	4.19336
312.408	44.0034
315.3	65.436
318.193	18.8232
321.086	8.39014
323.978	14.0752
326.871	71.418
329.764	6.76465
332.657	62.4048
335.549	33.5425
338.442	37.3037
341.335	4.50244
344.227	84.7407
347.12	99.6733
350.013	87.4424
352.906	68.4482
355.798	58.0571
358.691	90.5562
361.584	182.512
364.476	121.726
367.369	102.498
370.262	99.4175
373.154	39.1265
376.047	68.2871
378.94	10.2422
381.832	114.895
384.725	104.938
387.618	84.022
390.511	5.37842
393.403	22.2197
396.296	75.0537
399.189	38.5537
402.081	7.58789
404.974	20.9883
407.867	47.1372
410.76	58.0625
413.652	7.05273
416.545	70.2627
419.438	22.3477
422.33	98.2227
425.223	117.083
428.116	68.0635
431.008	80.0005
433.901	69.063
436.794	68.3379
439.687	17.0654
442.579	0.972656
445.472	73.374
448.365	31.5215
451.257	20.605
454.15	69.7495
457.043	29.8696
459.935	63.5933
462.828	52.1538
465.721	96.5957
468.613	22.771
471.506	52.481
474.399	24.6719
477.291	72.6533
480.184	31.4463
483.077	26.8462
485.97	21.084
488.862	17.5625
491.755	38.0498
494.648	114.301
497.54	14.4282
500.433	2.03516
503.326	27.0215
506.219	58.9502
509.111	56.0645
512.004	52.5855
514.897	79.4756
517.789	68.3037
520.682	1.1543
523.575	10.9595
526.467	0.54834
529.36	24.4609
532.253	81.2485
535.145	23.022
538.038	18.1724
540.931	26.4526
543.824	58.585
546.716	129.723
549.609	60.0664
552.502	59.3535
555.394	43.6572
558.287	16.4341
561.18	30.0054
564.072	16.7544
566.965	58.022
569.858	84.6665
572.751	25.8174
575.643	59.9482
578.536	24.5561
581.429	100.323
584.321	29.1675
587.214	44.9399
590.107	62.7036
593	92.9502
595.892	80.0606
598.785	22.8281
601.678	72.7529
604.57	57.6221
607.463	122.874
610.356	44.0547
613.248	59.4648
616.141	110.23
619.034	56.2544
621.927	61.7358
624.819	85.5337
627.712	14.2017
630.605	108.871
633.497	63.2305
636.39	41.8877
639.283	93.2222
642.175	81.7085
645.068	41.2402
647.961	81.6763
650.854	6.96924
653.746	87.061
656.639	54.9199
659.532	39.4922
662.424	63.0698
665.317	77.8379
668.21	69.6362
671.102	74.9385
673.995	60.2588
676.888	85.1103
679.78	10.5181
682.673	48.8696
685.566	58.7627
688.459	57.8462
691.351	26.3564
694.244	49.4824
697.137	100.93
700.029	44.7915
702.922	86.3672
705.815	76.4326
708.707	15.5508
711.6	4.93604
714.493	64.77
717.386	56.0815
720.278	96.2842
723.171	58.0308
726.064	81.3696
728.956	60.1445
731.849	16.8447
734.742	53.8369
737.635	65.0195
740.527	96.1909
743.42	47.2183
746.313	64.603
749.205	34.7441
752.098	5.57275
754.991	62.0361
757.883	56.2598
760.776	17.8179
763.669	46.2612
766.562	128.537
769.454	56.8467
772.347	36.2456
775.24	44.7764
778.132	46.6953
781.025	82.5811
783.918	61.0781
786.81	29.6987
789.703	87.0928
792.596	65.3052
795.489	56.1494
798.381	35.7827
801.274	4.72021
804.167	23.5523
807.059	53.5762
809.952	45.3608
812.845	80.2666
815.737	48.6152
818.63	50.5449
821.523	67.2017
824.415	103.48
827.308	37.7065
830.201	46.1421
833.093	65.5591
835.986	41.1821
838.879	61.6455
841.772	57.9985
844.664	33.1152
847.557	67.1592
850.45	40.4985
853.342	88.5254
856.235	57.9966
859.128	36.7422
862.02	44.6836
864.913	19.6606
867.806	10.354
870.699	36.5981
873.591	0.998047
876.484	35.6953
879.377	38.187
882.269	39.873
885.162	17.8291
888.055	28.4775
890.947	5.47217
893.84	58.5649
896.733	45.2251
899.626	62.5137
902.518	92.6787
905.411	88.0498
908.304	72.1562
911.196	40.5884
914.089	50.8418
916.982	40.5239
919.875	52.064
922.767	43.0791
925.66	78.6963
928.553	16.6201
931.445	45.4331
934.338	46.9512
937.231	8.02832
940.123	43.4375
943.016	44.6709
945.909	45.3726
948.802	22.9673
951.694	0.338379
954.587	50.4404
957.48	32.2139
960.372	71.4927
963.265	55.1826
966.158	56.1562
969.05	85.8945
971.943	39.0684
974.836	66.6992
977.729	62.0625
980.621	60.8506
983.514	61.043
986.407	107.593
989.299	78.5845
992.192	27.3462
995.085	37.187
997.977	77.064
1000.87	77.9473
1003.76	59.459
1006.65	41.707
1009.55	52.0234
1012.44	36.3638
1015.33	27.1426
1018.23	31.2725
1021.12	20.4814
1024.01	56.4766
1026.9	35.0195
1029.8	74.1816
1032.69	6.29053
1035.58	68.687
1038.47	10.938
1041.37	54.4477
1044.26	31.043
1047.15	22.4141
1050.05	29.562
1052.94	27.2686
1055.83	71.6792
1058.72	22.2051
1061.62	38.2559
1064.51	43.2388
1067.4	84.7256
1070.3	92.1123
1073.19	78.0039
1076.08	57.4297
1078.97	104.389
1081.87	58.1055
1084.76	27.0581
1087.65	83.9336
1090.54	49.6123
1093.44	55.6753
1096.33	41.8091
1099.22	6.95312
1102.12	82.5625
1105.01	79.4312
1107.9	87.2676
1110.79	22.3843
1113.68	73.9976
1116.58	9.53955
1119.47	81.2769
1122.36	5.09375
1125.26	26.2363
1128.15	21.0938
1131.04	72.2378
1133.93	45.956
1136.83	5.28027
1139.72	31.4346
1142.61	71.6977
1145.51	32.9941
1148.4	85.3296
1151.29	98.4258
1154.18	69.6011
1157.08	19.9214
1159.97	44.9614
1162.86	48.0454
1165.75	124.726
1168.65	84.8916
1171.54	86.4683
1174.43	68.854
1177.33	87.8154
1180.22	48.3242
1183.11	78.0513
1186	19.396
1188.9	29.7734
1191.79	77.8897
1194.68	40.604
1197.57	73.812
1200.47	102.203
1203.36	27.9966
1206.25	38.5366
1209.14	99.0938
1212.04	68.9814
1214.93	32.543
1217.82	99.4414
1220.71	80.4678
1223.61	47.9629
1226.5	71.0767
1229.39	53.7334
1232.29	10.9126
1235.18	58.9526
1238.07	70.7949
1240.96	33.5444
1243.86	44.7808
1246.75	122.051
1249.64	88.9907
1252.54	67.2783
1255.43	55.6636
1258.32	58.4785
1261.21	57.9106
1264.11	69.1313
1267	46.4966
1269.89	75.606
1272.78	71.8589
1275.68	62.522
1278.57	131.506
1281.46	14.5874
1284.36	26.0835
1287.25	25.1914
