Measurement: Raman, 532 nm, unoriented, Raman Data Processed
Mineral: Todorokite
Rruff sample: R070257
Ideal chemistry: (Na,Ca,K,Ba,Sr)_1-x_(Mn^4+^,Mn^3+^,Mg,Al)_6_O_12_3-4H_2_O
Locality: Todoroki mine, Shiribeshi Province, Hokkaido Island, Japan
Source: Michael Scott
Description: Black fibrous fine grains
Raman shift (cm-1)	intensity
151.59	0
154.965	14.8964
158.34	11.439
161.715	21.7254
165.09	8.21472
168.464	22.9982
171.839	20.569
175.214	26.348
178.589	27.0049
181.964	21.1452
185.339	28.5546
188.713	40.3776
192.088	10.7256
195.463	30.7021
198.838	14.5148
202.213	18.2582
205.587	25.7982
208.962	19.5254
212.337	29.6303
215.712	4.62933
219.087	15.7071
222.462	6.78796
225.836	25.2492
229.211	15.4024
232.586	3.15942
235.961	24.4623
239.336	28.4915
242.71	14.5274
246.085	18.5429
249.46	34.6492
252.835	15.0692
256.21	1.17789
259.584	21.9892
262.959	11.3058
266.334	28.0762
269.709	7.62689
273.084	28.0469
276.459	13.3019
279.833	12.8584
283.208	19.5785
286.583	37.9264
289.958	13.8357
293.333	23.2736
296.707	21.8553
300.082	18.2082
303.457	8.2081
306.832	3.45019
310.207	11.6455
313.582	21.4433
316.956	16.7567
320.331	0.251434
323.706	23.3874
327.081	13.876
330.456	16.3257
333.83	17.5338
337.205	24.2698
340.58	23.0682
343.955	3.37082
347.33	14.7406
350.705	31.6416
354.079	25.1929
357.454	20.327
360.829	16.1773
364.204	4.73807
367.579	31.0803
370.954	14.1177
374.328	7.56955
377.703	15.6137
381.078	29.2566
384.453	33.9367
387.828	19.6273
391.202	17.6618
394.577	3.90595
397.952	37.7709
401.327	22.3516
404.702	23.6461
408.077	13.8101
411.451	15.3334
414.826	6.68607
418.201	3.69809
421.576	7.70343
424.951	25.8536
428.325	16.2222
431.7	21.7975
435.075	2.4946
438.45	21.5843
441.825	18.7135
445.2	25.3532
448.574	40.7121
451.949	15.1215
455.324	23.8544
458.699	18.6194
462.074	39.5631
465.448	19.3654
468.823	14.2087
472.198	19.3414
475.573	46.0541
478.948	41.3967
482.322	40.3434
485.697	15.5279
489.072	3.09454
492.447	23.1603
495.822	21.8195
499.197	1.27277
502.571	0.594849
505.946	11.8984
509.321	1.0509
512.696	11.491
516.071	18.8327
519.446	2.44214
522.82	2.33881
526.195	6.08685
529.57	6.50897
532.945	2.46783
536.32	30.9871
539.694	20.2117
543.069	37.3723
546.444	31.4138
549.819	35.45
553.194	40.3701
556.568	87.5035
559.943	62.4597
563.318	70.0091
566.693	69.004
570.068	82.7737
573.443	90.1676
576.817	90.3594
580.192	105.502
583.567	67.7345
586.942	78.8779
590.317	83.144
593.692	125.906
597.066	122.787
600.441	113.287
603.816	131.47
607.191	134.848
610.566	130.935
613.94	162.624
617.315	185.594
620.69	187.301
624.065	193.717
627.44	200.588
630.814	229.448
634.189	243.272
637.564	185.952
640.939	204.12
644.314	184.17
647.689	172.907
651.063	122.36
654.438	113.078
657.813	125.169
661.188	91.3189
664.563	61.4438
667.938	40.1359
671.312	33.7859
674.687	12.6663
678.062	7.0708
681.437	5.54413
684.812	32.1342
688.186	14.4297
691.561	9.61102
694.936	2.11133
698.311	14.6668
701.686	10.3972
705.061	18.7842
708.435	11.5799
711.81	0.648712
715.185	12.1274
718.56	1.77142
721.935	1.32196
725.309	24.4415
728.684	12.9561
732.059	13.218
735.434	25.4227
738.809	26.7466
742.183	10.144
745.558	37.3511
748.933	0.239929
752.308	4.95438
755.683	21.1987
759.058	10.4937
762.432	4.62659
765.807	15.3314
769.182	15.3434
772.557	31.1703
775.932	14.9586
779.307	19.5832
782.681	11.7063
786.056	23.6186
789.431	22.4803
792.806	7.95633
796.181	6.50101
799.555	25.5756
802.93	6.91174
806.305	14.6526
809.68	14.0706
813.055	26.0594
816.429	14.9442
819.804	16.5868
823.179	12.8006
826.554	0.801361
829.929	22.5359
833.304	32.4711
836.678	0.506409
840.053	17.0849
843.428	11.5148
846.803	32.3098
850.178	29.1197
853.553	4.47531
856.927	2.52927
860.302	19.7058
863.677	27.2744
867.052	33.8537
870.427	4.83481
873.801	5.68222
877.176	5.46353
880.551	12.5915
883.926	24.7797
887.301	23.4448
890.676	16.5173
894.05	21.624
897.425	21.2427
900.8	7.92892
904.175	15.8974
907.55	5.72534
910.924	19.3484
914.299	24.5583
917.674	14.5713
921.049	15.4934
924.424	2.68115
927.798	11.8
931.173	12.4709
934.548	18.778
937.923	10.0125
941.298	7.50223
944.673	13.3968
948.047	33.2737
951.422	8.16931
954.797	17.0084
958.172	19.2026
961.547	32.7772
964.922	21.9515
968.296	35.4127
971.671	29.2655
975.046	17.9858
978.421	5.15079
981.796	12.0356
985.17	27.6379
988.545	43.1084
991.92	2.11792
995.295	19.5724
998.67	20.2429
1002.04	13.262
1005.42	24.2427
1008.79	27.9839
1012.17	15.9884
1015.54	38.6258
1018.92	12.9008
1022.29	38.5875
1025.67	15.4255
1029.04	36.9738
1032.42	13.9023
1035.79	1.90854
1039.17	5.54568
1042.54	30.3605
1045.92	27.6758
1049.29	26.272
1052.67	9.55408
1056.04	2.77634
1059.42	24.1527
1062.79	8.11609
1066.17	1.151
1069.54	11.7259
1072.92	16.9286
1076.29	19.7823
1079.66	15.2827
1083.04	6.96176
1086.41	20.2306
1089.79	6.76178
1093.16	34.4324
1096.54	4.88226
1099.91	20.491
1103.29	13.6183
1106.66	7.79138
1110.04	8.29395
1113.41	20.333
1116.79	16.9775
1120.16	22.2882
1123.54	22.0648
1126.91	19.0729
1130.29	25.9148
1133.66	19.1617
1137.04	20.9854
1140.41	14.1636
1143.79	22.0745
1147.16	13.5408
1150.54	10.3455
1153.91	27.6239
1157.29	4.21832
1160.66	23.2755
1164.04	11.2839
1167.41	15.4119
1170.79	26.1232
1174.16	23.7343
1177.54	30.069
1180.91	31.1409
1184.29	18.8639
1187.66	27.498
1191.03	10.5864
1194.41	28.6629
1197.78	19.9094
1201.16	27.0667
1204.53	13.8661
1207.91	18.0784
1211.28	27.1056
1214.66	15.6852
1218.03	22.8117
1221.41	21.6533
1224.78	26.7975
1228.16	6.95252
1231.53	25.2338
1234.91	25.4066
1238.28	15.8972
1241.66	22.1403
1245.03	19.065
1248.41	38.1581
1251.78	16.45
1255.16	32.6066
1258.53	22.1947
1261.91	10.4088
1265.28	39.7331
1268.65	36.7449
1272.03	8.74762
1275.4	22.7445
1278.78	12.3986
1282.15	14.268
1285.53	31.6035
1288.9	4.70276
1292.28	17.0962
1295.65	8.79047
1299.03	12.1945
1302.4	8.0481
1305.78	6.05118
1309.15	0
