Measurement: Raman, 785 nm, unoriented, Raman Data Processed
Mineral: Todorokite
Rruff sample: R070257
Ideal chemistry: (Na,Ca,K,Ba,Sr)_1-x_(Mn^4+^,Mn^3+^,Mg,Al)_6_O_12_3-4H_2_O
Locality: Todoroki mine, Shiribeshi Province, Hokkaido Island, Japan
Source: Michael Scott
Description: Black fibrous fine grains
Raman shift (cm-1)	intensity
203.944	0
206.836	40.7685
209.729	42.9241
212.622	1.17188
215.514	9.60278
218.407	13.8303
221.3	69.2932
224.192	82.5823
227.085	50.7493
229.978	91.7625
232.87	92.5681
235.763	82.0579
238.656	55.1238
241.549	64.0947
244.441	59.0911
247.334	44.0505
250.227	15.6831
253.119	34.6462
256.012	30.1582
258.905	78.0671
261.798	45.0803
264.69	68.0796
267.583	116.312
270.476	36.1211
273.368	24.4561
276.261	64.8799
279.154	60.6592
282.046	91.4131
284.939	107.956
287.832	74.3149
290.724	82.2637
293.617	77.1641
296.51	65.0356
299.403	38.5259
302.295	64.7651
305.188	62.1802
308.081	66.376
310.973	75.1909
313.866	36.8198
316.759	62.1343
319.651	31.4941
322.544	44.1011
325.437	30.1177
328.33	46.0034
331.222	74.5034
334.115	71.6665
337.008	13.4287
339.9	1.10059
342.793	19.5156
345.686	44.0195
348.579	43.6406
351.471	2.09033
354.364	81.7949
357.257	49.7964
360.149	39.2417
363.042	46.6592
365.935	8.62256
368.827	14.6758
371.72	59.1831
374.613	46.5815
377.505	97.2246
380.398	3.67773
383.291	18.2114
386.184	46.8955
389.076	24.2583
391.969	40.79
394.862	21.3252
397.754	7.14111
400.647	12.7671
403.54	26.7319
406.433	18.1753
409.325	8.49121
412.218	9.51172
415.111	21.9399
418.003	11.002
420.896	8.81836
423.789	46.3677
426.681	23.3784
429.574	3.74609
432.467	86.7407
435.36	18.7334
438.252	41.8423
441.145	60.6069
444.038	26.6416
446.93	74.5562
449.823	67.9399
452.716	0.573242
455.608	48.3511
458.501	39.1709
461.394	41.2866
464.286	42.2031
467.179	49.8721
470.072	80.395
472.965	1.96094
475.857	42.5088
478.75	72.2705
481.643	3.81006
484.535	90.7827
487.428	36.8296
490.321	42.23
493.214	54.9043
496.106	47.2231
498.999	4.0332
501.892	44.3994
504.784	45.001
507.677	2.42139
510.57	1.46533
513.462	60.5269
516.355	11.6816
519.248	32.0762
522.14	24.583
525.033	15.769
527.926	20.3018
530.819	46.2676
533.711	18.1548
536.604	33.9434
539.497	11.4141
542.389	24.7231
545.282	18.7822
548.175	20.1704
551.067	4.72266
553.96	32.3648
556.853	5.16455
559.745	39.1055
562.638	63.8408
565.531	109.547
568.424	56.019
571.316	82.3154
574.209	69.5396
577.102	104.373
579.994	103.7
582.887	114.082
585.78	72.5688
588.673	137.385
591.565	97.0586
594.458	52.9399
597.351	87.52
600.243	139.264
603.136	166.656
606.029	158.182
608.921	163.852
611.814	154.793
614.707	127.707
617.6	219.165
620.492	146.126
623.385	161.978
626.278	215.427
629.17	233.293
632.063	237.124
634.956	237.818
637.848	226.991
640.741	269.745
643.634	295.727
646.527	272.699
649.419	278.022
652.312	262.778
655.205	217.181
658.097	207.319
660.99	155.248
663.883	203.3
666.775	126.122
669.668	93.4668
672.561	49.7256
675.454	50.4961
678.346	44.3897
681.239	13.6977
684.132	67.1797
687.024	24.1011
689.917	6.31592
692.81	2.9165
695.702	25.2222
698.595	35.3467
701.488	53.5757
704.381	44.1816
707.273	46.7378
710.166	15.5469
713.059	11.9053
715.951	73.3931
718.844	2.54492
721.737	34.812
724.63	13.2954
727.522	65.4424
730.415	60.4507
733.308	34.3852
736.2	20.2754
739.093	46.416
741.986	19.1689
744.878	18.4199
747.771	65.3071
750.664	22.1811
753.557	33.5688
756.449	68.7119
759.342	32.6377
762.235	27.9893
765.127	55.6392
768.02	80.9585
770.913	45.852
773.805	66.2446
776.698	59.5786
779.591	17.2158
782.484	7.41943
785.376	14.2979
788.269	70.7231
791.162	36.919
794.054	32.3003
796.947	64.2759
799.84	10.5532
802.732	48.2832
805.625	71.0532
808.518	69.5693
811.41	41.9297
814.303	34.4014
817.196	47.4341
820.089	46.2329
822.981	17.6621
825.874	101.374
828.767	90.376
831.659	34.332
834.552	7.54004
837.445	83.5464
840.337	17.6733
843.23	63.0527
846.123	58.4531
849.016	67.2241
851.908	24.7632
854.801	15.7378
857.694	29.7398
860.586	85.2534
863.479	20.5762
866.372	76.3452
869.264	42.8062
872.157	38.6875
875.05	49.1528
877.943	7.5166
880.835	36.9761
883.728	30.0112
886.621	55.9448
889.513	57.2051
892.406	98.7417
895.299	30.8648
898.192	52.9106
901.084	46.1597
903.977	1.48438
906.87	15.04
909.762	83.1982
912.655	102.914
915.548	86.5718
918.44	59.1011
921.333	31.1611
924.226	13.9038
927.119	77.792
930.011	50.083
932.904	24.6606
935.797	53.4853
938.689	69.7046
941.582	7.42773
944.475	76.4185
947.367	0.134277
950.26	17.1714
953.153	44.0855
956.045	47.4443
958.938	77.9014
961.831	80.1821
964.724	119.378
967.616	3.8125
970.509	22.5166
973.402	36.1113
976.294	30.333
979.187	78.5376
982.08	37.4736
984.972	5.23389
987.865	104.946
990.758	62.3799
993.651	66.0278
996.543	49.1929
999.436	41.0913
1002.33	35.0478
1005.22	21.1958
1008.11	72.4824
1011.01	67.2803
1013.9	38.7676
1016.79	48.1128
1019.68	35.3047
1022.58	18.7646
1025.47	54.9663
1028.36	82.3843
1031.26	14.8462
1034.15	84.478
1037.04	51.3735
1039.93	21.7354
1042.83	37.876
1045.72	67.2505
1048.61	32.7378
1051.51	73.4477
1054.4	80.1157
1057.29	105.063
1060.18	35.0825
1063.08	54.8345
1065.97	28.9482
1068.86	10.4736
1071.75	98.6133
1074.65	62.9414
1077.54	46.4443
1080.43	63.2285
1083.32	93.8525
1086.22	68.8594
1089.11	39.5112
1092	63.6709
1094.89	0.941406
1097.79	41.5586
1100.68	15.6504
1103.57	101.301
1106.47	90.1431
1109.36	46.2388
1112.25	51.9819
1115.14	62.2222
1118.04	9.53271
1120.93	33.3394
1123.82	86.8237
1126.71	53.5742
1129.61	35.1191
1132.5	72.9453
1135.39	28.3911
1138.29	49.2632
1141.18	134.719
1144.07	9.2915
1146.96	26.0596
1149.86	59.6201
1152.75	111.275
1155.64	18.4546
1158.53	13.6435
1161.43	78.7725
1164.32	49.6973
1167.21	66.041
1170.11	43.022
1173	13.5259
1175.89	53.4692
1178.78	106.107
1181.68	38.0796
1184.57	55.8857
1187.46	64.2529
1190.35	56.6216
1193.25	46.897
1196.14	44.02
1199.03	35.6226
1201.92	69.3838
1204.82	73.6367
1207.71	88.5278
1210.6	77.4531
1213.5	95.9326
1216.39	8.64453
1219.28	69.105
1222.17	51.8291
1225.07	111.76
1227.96	137.297
1230.85	102.745
1233.74	143.469
1236.64	7.28516
1239.53	61.9507
1242.42	30.0176
