Measurement: Raman, 780 nm, unoriented, Raman Data Processed
Mineral: Tremolite
Rruff sample: R150094
Ideal chemistry: [box]Ca_2_Mg_5_Si_8_O_22_(OH)_2_
Locality: Belmat, St. Lawrence Co., New York, USA
Source: UAMM 9512
Description: Aggregate of pinkish prismatic crystals with good cleavage
Raman shift (cm-1)	intensity
91.5599	0
94.9347	291.738
98.3096	168.376
101.684	66.6926
105.059	54.9504
108.434	71.9619
111.809	60.6855
115.184	102.451
118.558	128.593
121.933	179.899
125.308	174.537
128.683	74.4492
132.058	24.5376
135.433	9.53076
138.807	6.77661
142.182	1.23682
145.557	4.95044
148.932	8.70923
152.307	31.6094
155.681	6.11792
159.056	11.209
162.431	72.489
165.806	97.7537
169.181	19.8276
172.555	24.5969
175.93	59.3079
179.305	139.883
182.68	157.367
186.055	85.2446
189.43	63.0596
192.804	69.4463
196.179	62.5715
199.554	40.9812
202.929	35.2676
206.304	39.6782
209.678	66.2114
213.053	113.07
216.428	165.811
219.803	139.838
223.178	186.407
226.553	242.334
229.927	206.367
233.302	235.188
236.677	214.381
240.052	114.332
243.427	64.3611
246.801	63.3855
250.176	82.5876
253.551	98.6562
256.926	58.1702
260.301	19.7639
263.675	37.0964
267.05	35.8843
270.425	16.1846
273.8	2.10815
277.175	0.253662
280.55	1.67505
283.924	9.15796
287.299	6.28491
290.674	24.115
294.049	17.5996
297.424	6.42603
300.798	18.8088
304.173	23.9954
307.548	13.1414
310.923	19.9998
314.298	12.1819
317.673	12.3096
321.047	4.69971
324.422	10.1987
327.797	8.9873
331.172	11.2856
334.547	13.9089
337.921	34.1057
341.296	9.54541
344.671	34.7539
348.046	29.8166
351.421	11.4651
354.796	21.6431
358.17	14.5867
361.545	2.93799
364.92	20.113
368.295	57.2112
371.67	121.806
375.044	91.8701
378.419	36.2327
381.794	17.7109
385.169	2.63501
388.544	49.9934
391.918	103.45
395.293	197.138
398.668	214.801
402.043	83.0403
405.418	26.0737
408.793	4.14819
412.167	13.9377
415.542	38.2969
418.917	65.1836
422.292	62.1746
425.667	32.8899
429.041	29.3833
432.416	5.70166
435.791	0.759033
439.166	2.99365
442.541	5.78589
445.915	0.307129
449.29	2.08374
452.665	1.33203
456.04	17.1782
459.415	27.3699
462.789	14.4604
466.164	13.0093
469.539	25.2344
472.914	28.8135
476.289	15.8174
479.664	26.978
483.038	28.2925
486.413	43.0635
489.788	38.7676
493.163	41.5791
496.538	43.2949
499.913	32.6773
503.287	16.4106
506.662	26.8154
510.037	33.4409
513.412	44.6733
516.787	48.3145
520.161	45.1895
523.536	32.1299
526.911	27.2339
530.286	28.3394
533.661	29.9575
537.035	1.31152
540.41	9.76611
543.785	3.14258
547.16	0.814453
550.535	2.71094
553.909	1.51318
557.284	8.72412
560.659	3.06152
564.034	12.1069
567.409	13.2856
570.784	11.1792
574.158	18.2988
577.533	31.5996
580.908	10.8086
584.283	25.666
587.658	34.0171
591.033	15.7544
594.407	15.4829
597.782	30.5757
601.157	23.3774
604.532	7.81689
607.907	2.7334
611.281	11.8149
614.656	14.4614
618.031	8.07227
621.406	1.91894
624.781	8.64893
628.155	3.74805
631.53	18.3911
634.905	11.6484
638.28	23.0981
641.655	11.4248
645.029	26.4951
648.404	24.5596
651.779	38.3486
655.154	44.8877
658.529	80.0234
661.904	95.5034
665.278	149.966
668.653	288.54
672.028	534.981
675.403	825.083
678.778	734.113
682.153	376.959
685.527	185.605
688.902	119.776
692.277	70.8677
695.652	34.3916
699.027	14.3452
702.401	0.963379
705.776	2.83301
709.151	9.42236
712.526	12.3208
715.901	24.4521
719.275	24.6348
722.65	15.5068
726.025	3.06787
729.4	16.4419
732.775	40.623
736.149	51.0566
739.524	56.4492
742.899	65.7031
746.274	44.5063
749.649	53.3677
753.024	58.3872
756.398	65.8633
759.773	47.8662
763.148	21.3755
766.523	0.226074
769.898	0.031738
773.273	23.8135
776.647	26.2217
780.022	12.7168
783.397	7.82178
786.772	2.30664
790.146	3.16357
793.521	10.1309
796.896	10.8179
800.271	24.4238
803.646	10.1685
807.021	23.5029
810.395	27.7744
813.77	28.3091
817.145	24.6611
820.52	23.1152
823.895	40.8213
827.269	42.3813
830.644	35.8062
834.019	25.5488
837.394	15.0112
840.769	33.1904
844.144	32.208
847.518	45.6138
850.893	31.1592
854.268	21.4439
857.643	26.4893
861.018	19.293
864.393	34.2017
867.767	10.7788
871.142	13.7749
874.517	19.7314
877.892	1.32666
881.266	3.17432
884.641	14.3852
888.016	9.78223
891.391	19.7998
894.766	9.729
898.141	12.4375
901.515	8.57227
904.89	11.7588
908.265	20.3555
911.64	36.8852
915.015	12.3516
918.389	5.20264
921.764	44.2334
925.139	32.5176
928.514	37.7344
931.889	49.7305
935.264	61.9922
938.638	48.4228
942.013	30.5898
945.388	20.9688
948.763	14.9766
952.138	19.4502
955.512	41.2705
958.887	26.8799
962.262	39.9141
965.637	17.5557
969.012	2.56934
972.386	1.19238
975.761	2.69727
979.136	11.0977
982.511	14.9258
985.886	4.91211
989.261	17.7822
992.635	24.3174
996.01	15.0078
999.385	21.9014
1002.76	25.6719
1006.13	12.1104
1009.51	25.8916
1012.88	8.57422
1016.26	49.6377
1019.63	30.375
1023.01	40.8701
1026.38	50.375
1029.76	65.1602
1033.13	98.6846
1036.51	87.9131
1039.88	34.3398
1043.26	53.7422
1046.63	19.7617
1050.01	43.627
1053.38	33.8242
1056.76	18.6377
1060.13	75.293
1063.51	107.484
1066.88	94.6728
1070.26	72.7637
1073.63	88.3115
1077.01	61.9746
1080.38	31.376
1083.76	16.0762
1087.13	47.833
1090.51	3.32422
1093.88	15.3613
1097.26	20.7871
1100.63	1.96094
1104	13.6435
1107.38	2.66602
1110.75	28.2754
1114.13	1.3457
1117.5	17.9707
1120.88	2.35547
1124.25	27.8496
1127.63	2.42871
1131	18.8408
1134.38	44.9307
1137.75	38.2441
1141.13	49.3574
1144.5	34.4111
1147.88	53.1641
1151.25	61.585
1154.63	49.3643
1158	57.792
1161.38	64.5664
1164.75	54.8262
1168.13	63.9033
1171.5	109.973
1174.88	100.538
1178.25	107.739
1181.62	106.362
1185	101.735
1188.38	105.932
1191.75	90.041
1195.12	106.368
1198.5	77.1309
1201.87	108.711
1205.25	74.3711
1208.62	87.4531
1212	89.6094
1215.37	82.9209
1218.75	34.8613
1222.12	0.842773
1225.5	23.002
1228.87	56.3369
1232.25	42.2197
1235.62	24.3506
1239	1.35352
1242.37	5.21875
1245.75	7.92578
1249.12	8.45801
1252.5	36.4541
1255.87	61.0049
1259.25	86.1738
1262.62	65.6689
1265.99	73.8027
1269.37	21.5059
1272.74	30.7266
1276.12	32.4853
1279.49	47.7031
1282.87	47.084
