Measurement: Raman, 785 nm, unoriented, Raman Data Processed
Mineral: Tremolite
Rruff sample: R040109
Ideal chemistry: [box]Ca_2_Mg_5_Si_8_O_22_(OH)_2_
Locality: Cassiar, British Columbia, Canada
Source: University of Arizona Mineral Museum
Description: Green fine-grained massive
Measured chemistry: [box]Ca_1.99_(Mg_0.90_Fe_0.08_Al_0.01_)_5_Si_8.01_O_22_(OH)_2_
Raman shift (cm-1)	intensity
170.968	0
173.86	310.727
176.753	1468.84
179.646	1406.69
182.538	203.266
185.431	1.28125
188.324	114.656
191.216	343.727
194.109	515.106
197.002	732.797
199.894	1165.21
202.787	1282.47
205.68	1356.08
208.573	1709.06
211.465	1900.5
214.358	2391.57
217.251	3188.15
220.143	4563.38
223.036	5466.49
225.929	4288.56
228.821	3261.5
231.714	2909.48
234.607	2496.3
237.5	1525.24
240.392	1412.15
243.285	1365.71
246.178	1399.3
249.07	1322.46
251.963	1235.48
254.856	828.926
257.748	730.414
260.641	736.047
263.534	770.633
266.427	594.789
269.319	438.606
272.212	332.742
275.105	269.746
277.997	157.281
280.89	238.027
283.783	399.242
286.675	477.281
289.568	468.324
292.461	341.816
295.354	330.059
298.246	191
301.139	374.172
304.032	463.508
306.924	235.519
309.817	275.059
312.71	117.106
315.603	186.129
318.495	151.09
321.388	23.9336
324.281	26.2266
327.173	253.367
330.066	187.398
332.959	212.832
335.851	285.606
338.744	230.477
341.637	310.894
344.529	379.863
347.422	479.383
350.315	717.777
353.208	665.769
356.1	508.148
358.993	489.867
361.886	782.762
364.778	1029.19
367.671	1624.85
370.564	1879.43
373.457	1305.68
376.349	723.781
379.242	545.648
382.135	493.953
385.027	598.309
387.92	1110.84
390.813	1824.55
393.705	2278.25
396.598	1480.39
399.491	761.5
402.384	408.144
405.276	469.875
408.169	507.719
411.062	580.801
413.954	959.926
416.847	821.731
419.74	644.398
422.632	298.863
425.525	181.481
428.418	122.125
431.31	169.941
434.203	190.871
437.096	455.789
439.989	265.148
442.881	120.836
445.774	109.199
448.667	54.3438
451.559	144.5
454.452	121.027
457.345	15.1719
460.238	78.0234
463.13	111.387
466.023	111.019
468.916	275.426
471.808	98.0156
474.701	110.094
477.594	179.965
480.486	182.234
483.379	272.375
486.272	182.578
489.164	186.316
492.057	304.504
494.95	143.227
497.843	166.156
500.735	18.125
503.628	323.156
506.521	311.336
509.413	481.336
512.306	641.906
515.199	647.254
518.091	621.367
520.984	502.625
523.877	386.215
526.77	530.898
529.662	652.859
532.555	515.727
535.448	351.551
538.34	179.801
541.233	238.019
544.126	111.797
547.019	81.8555
549.911	93.6719
552.804	77.082
555.697	186.598
558.589	131.117
561.482	56.5391
564.375	190.723
567.267	224.246
570.16	96.6641
573.053	58.1523
575.946	48.1836
578.838	220.75
581.731	180.547
584.624	175.281
587.516	261.754
590.409	129.074
593.302	23.3242
596.194	85.375
599.087	120
601.98	158.156
604.872	172.773
607.765	105.969
610.658	59.3672
613.551	19.4766
616.443	119.695
619.336	54.2969
622.229	155.672
625.121	126.918
628.014	118.184
630.907	78.875
633.799	287.188
636.692	224.918
639.585	253.863
642.477	349.031
645.37	562.422
648.263	851.496
651.156	1406.23
654.048	1290.16
656.941	1603.41
659.834	2149.2
662.726	3381.91
665.619	5179.21
668.512	7866.57
671.404	10448.1
674.297	10622.8
677.19	7189.31
680.083	3774.31
682.975	2084.76
685.868	1438.86
688.761	912.82
691.653	742.457
694.546	476.703
697.439	564.402
700.332	419.91
703.224	280.035
706.117	240.055
709.01	299.879
711.902	124.07
714.795	158.277
717.688	14.2891
720.58	166.043
723.473	173.18
726.366	128.727
729.259	173.918
732.151	13.3828
735.044	175.18
737.937	281.543
740.829	404.984
743.722	349.144
746.615	378.734
749.507	552.797
752.4	366.434
755.293	307
758.186	29.5273
761.078	158.238
763.971	43.1367
766.864	5.62109
769.756	16.6719
772.649	161.207
775.542	170.973
778.434	33.0352
781.327	14.0586
784.22	130.438
787.112	150.262
790.005	97.4102
792.898	158.644
795.791	184.84
798.683	30.0664
801.576	44.2227
804.469	32.8555
807.361	101.422
810.254	12.543
813.147	180.664
816.04	223.418
818.932	140.156
821.825	168.344
824.718	162.41
827.61	181.262
830.503	47.125
833.396	18.3047
836.288	123.832
839.181	41.7578
842.074	206.781
844.967	202.731
847.859	43.4844
850.752	55.1641
853.645	95.625
856.537	63.7891
859.43	169.551
862.323	148.062
865.216	151.621
868.108	239.894
871.001	141.348
873.894	94.207
876.786	30.3438
879.679	152.168
882.572	71.9805
885.464	213.188
888.357	107.293
891.25	124.918
894.143	109.598
897.035	122.367
899.928	160.086
902.821	254.465
905.713	87.6055
908.606	219.703
911.499	183.09
914.391	194.57
917.284	584.012
920.177	496.348
923.069	626.617
925.962	830.414
928.855	1091.68
931.748	1120.36
934.64	758.84
937.533	501.648
940.426	291.996
943.318	531.41
946.211	411.172
949.104	405.109
951.996	155.773
954.889	126.25
957.782	13.0703
960.675	131.148
963.567	75.2305
966.46	356.121
969.353	47.7148
972.245	118.527
975.138	65.0781
978.031	211.246
980.923	7.66797
983.816	22.9727
986.709	82.6836
989.602	93.3867
992.494	161.258
995.387	67.1055
998.28	196.445
1001.17	4.37891
1004.07	134.332
1006.96	175.621
1009.85	30.2656
1012.74	288.625
1015.64	412.398
1018.53	620.266
1021.42	608.055
1024.31	1099.17
1027.21	1214.07
1030.1	1265.65
1032.99	860.074
1035.88	705.215
1038.78	210.691
1041.67	227.445
1044.56	442.121
1047.46	538.688
1050.35	817.602
1053.24	1206.45
1056.13	1659.56
1059.03	2254.04
1061.92	1852.05
1064.81	1424.03
1067.7	1039.29
1070.6	850.773
1073.49	526.512
1076.38	197.488
1079.28	263.418
1082.17	388.32
1085.06	173.254
1087.95	82.9531
1090.85	240.988
1093.74	96.1133
1096.63	148.172
1099.52	96.2734
1102.42	100.957
1105.31	84.9727
1108.2	120.223
1111.1	29.0195
1113.99	293.344
1116.88	203.269
1119.77	65.1133
1122.67	94.3711
1125.56	96.9961
1128.45	128.043
1131.34	49.2266
1134.24	160.738
1137.13	256.281
1140.02	145.434
1142.91	88.2656
1145.81	64.2227
1148.7	12.3125
1151.59	96.8164
1154.48	262.914
1157.38	42.2812
1160.27	105.981
1163.16	93.2383
1166.06	103.68
1168.95	143.664
1171.84	66.4727
1174.73	120.727
1177.63	146.438
1180.52	211.769
1183.41	148.477
1186.31	8.90625
1189.2	188.289
1192.09	174.977
1194.98	175.668
1197.88	254.773
1200.77	292.059
1203.66	77.3125
1206.55	124.406
1209.45	164.379
1212.34	152.578
1215.23	17.8867
1218.12	296.707
1221.02	111.68
1223.91	80.8359
1226.8	219.16
1229.7	211.547
1232.59	86.6719
1235.48	0.179688
1238.37	0
