Measurement: Raman, 532 nm, unoriented, Raman Data Processed
Mineral: Tremolite
Rruff sample: R150094
Ideal chemistry: [box]Ca_2_Mg_5_Si_8_O_22_(OH)_2_
Locality: Belmat, St. Lawrence Co., New York, USA
Source: UAMM 9512
Description: Aggregate of pinkish prismatic crystals with good cleavage
Raman shift (cm-1)	intensity
89.7832	0
93.158	18.8019
96.5328	11.7209
99.9077	0.030334
103.282	0.341461
106.657	2.64941
110.032	20.3432
113.407	31.3083
116.782	50.7882
120.157	61.3432
123.531	67.1102
126.906	52.7053
130.281	40.0764
133.656	28.7072
137.031	26.7087
140.405	29.8498
143.78	25.057
147.155	22.1659
150.53	18.0092
153.905	19.7869
157.28	14.7903
160.654	19.8987
164.029	35.1222
167.404	14.8635
170.779	16.0973
174.154	20.3743
177.528	42.8184
180.903	56.4134
184.278	31.0254
187.653	14.5131
191.028	8.46344
194.403	8.85602
197.777	4.67358
201.152	1.0144
204.527	1.00171
207.902	5.12982
211.277	7.61029
214.651	21.0879
218.026	32.907
221.401	38.1785
224.776	64.1638
228.151	55.7227
231.525	43.237
234.9	40.0951
238.275	18.4197
241.65	3.90582
245.025	10.7325
248.4	8.39545
251.774	15.4607
255.149	8.20581
258.524	0.44989
261.899	2.44373
265.274	0.319946
268.649	2.87878
272.023	1.26312
275.398	2.13452
278.773	0.170654
282.148	0.908997
285.523	2.42163
288.897	9.42395
292.272	9.78491
295.647	10.6204
299.022	0.02887
302.397	4.41516
305.772	7.59399
309.146	5.74646
312.521	8.67444
315.896	4.77722
319.271	1.9693
322.646	1.38477
326.02	2.65326
329.395	8.40015
332.77	14.2958
336.145	10.9568
339.52	12.3675
342.894	2.93976
346.269	3.25232
349.644	5.11231
353.019	7.22205
356.394	6.59375
359.769	10.5947
363.143	14.5232
366.518	25.2103
369.893	45.1178
373.268	53.3844
376.643	25.8616
380.017	20.5692
383.392	13.3742
386.767	29.8791
390.142	37.2581
393.517	61.0073
396.892	100.521
400.266	48.8229
403.641	24.5159
407.016	13.7849
410.391	9.21326
413.766	19.7682
417.14	33.8557
420.515	33.5453
423.89	21.6719
427.265	8.71387
430.64	9.30054
434.014	7.13525
437.389	1.07166
440.764	8.25549
444.139	3.7229
447.514	0.192505
450.889	2.86145
454.263	2.45776
457.638	6.76831
461.013	3.7511
464.388	8.1405
467.763	10.5903
471.137	5.32153
474.512	11.5615
477.887	5.88086
481.262	1.38294
484.637	6.948
488.012	17.3297
491.386	22.6392
494.761	11.9619
498.136	9.20666
501.511	6.55261
504.886	9.81067
508.26	3.41894
511.635	10.1506
515.01	17.4486
518.385	15.1489
521.76	4.40991
525.135	9.89624
528.509	11.1148
531.884	9.38623
535.259	8.70789
538.634	5.96863
542.009	0.515381
545.384	0.967773
548.758	7.0824
552.133	4.43567
555.508	3.38647
558.883	12.2341
562.258	15.2416
565.632	16.5693
569.007	12.1873
572.382	10.0139
575.757	19.2866
579.132	18.5195
582.506	19.7466
585.881	22.7144
589.256	20.5623
592.631	15.9441
596.006	12.3306
599.381	17.2612
602.755	6.92725
606.13	13.5857
609.505	10.7205
612.88	17.1094
616.255	4.18384
619.63	14.167
623.004	4.62061
626.379	5.11011
629.754	9.14014
633.129	1.30176
636.504	7.64453
639.878	2.21802
643.253	1.29297
646.628	9.03369
650.003	12.7454
653.378	21.5388
656.752	33.5063
660.127	44.8708
663.502	80.8852
666.877	129.258
670.252	228.213
673.626	386.248
677.001	419.531
680.376	248.052
683.751	124.636
687.126	72.7046
690.501	39.522
693.875	19.157
697.25	7.31567
700.625	5.94849
704	3.52441
707.375	4.59619
710.75	3.86084
714.124	3.7666
717.499	14.6065
720.874	16.7241
724.249	15.2529
727.624	16.8989
730.998	8.83374
734.373	16.04
737.748	21.0173
741.123	27.3884
744.498	22.7319
747.872	45.8347
751.247	47.1211
754.622	31.4358
757.997	27.1853
761.372	24.2544
764.747	15.9085
768.121	13.9714
771.496	12.2278
774.871	14.7246
778.246	5.57764
781.621	11.2344
784.995	11.5352
788.37	19.6934
791.745	5.18652
795.12	2.54688
798.495	10.9619
801.87	16.855
805.244	19.9785
808.619	33.9038
811.994	15.019
815.369	14.6509
818.744	33.3496
822.119	30.6055
825.493	24.0864
828.868	4.20996
832.243	12.4058
835.618	5.50391
838.993	14.9614
842.367	30.1733
845.742	18.2954
849.117	9.21387
852.492	2.44531
855.867	11.3931
859.241	23.084
862.616	32.6113
865.991	17.8511
869.366	5.88721
872.741	22.2163
876.115	18.0317
879.49	0.044922
882.865	2.46631
886.24	0.243164
889.615	24.1611
892.99	31.603
896.364	18.1621
899.739	28.6099
903.114	37.1934
906.489	28.6118
909.864	26.8013
913.239	26.356
916.613	19.7725
919.988	36.2017
923.363	36.896
926.738	31.2588
930.113	24.7739
933.487	57.2319
936.862	27.6987
940.237	12.5918
943.612	16.2974
946.987	0.279297
950.361	1.74414
953.736	10.5117
957.111	6.63623
960.486	14.7075
963.861	23.7339
967.236	30.2598
970.61	40.3843
973.985	28.9512
977.36	18.3569
980.735	26.106
984.11	40.1641
987.485	32.125
990.859	26.4556
994.234	5.91309
997.609	16.6396
1000.98	22.5981
1004.36	21.6455
1007.73	9.92871
1011.11	28.1807
1014.48	21.8369
1017.86	23.9199
1021.23	10.9463
1024.61	13.4209
1027.98	42.8809
1031.36	48.7324
1034.73	38.5518
1038.11	41.7119
1041.48	31.1016
1044.86	27.4287
1048.23	30.9658
1051.61	20.9805
1054.98	32.6592
1058.36	16.8252
1061.73	1.23047
1065.11	31.4121
1068.48	11.9316
1071.86	30.6758
1075.23	10.3379
1078.6	11.8594
1081.98	15.2148
1085.35	23.6055
1088.73	17.1826
1092.1	17.793
1095.48	9.06445
1098.85	5.37402
1102.23	11.7129
1105.6	4.92578
1108.98	18.6709
1112.35	42.3779
1115.73	27.3037
1119.1	30.2158
1122.48	51.4746
1125.85	8.57031
1129.23	13.8711
1132.6	1.29394
1135.98	24.4863
1139.35	13.2041
1142.73	35.6162
1146.1	2.61426
1149.48	34.5889
1152.85	61.1318
1156.22	77.4131
1159.6	32.1191
1162.97	30.1162
1166.35	6.05566
1169.72	41.3428
1173.1	43.1572
1176.47	61.9385
1179.85	50.0039
1183.22	31.9268
1186.6	52.2022
1189.97	51.2334
1193.35	67.4531
1196.72	64.3652
1200.1	35.4502
1203.47	32.1953
1206.85	31.5625
1210.22	59.1592
1213.6	43.7246
1216.97	28.5088
1220.35	46.6162
1223.72	27.916
1227.1	18.1123
1230.47	5.01269
1233.85	21.1885
1237.22	22.7949
1240.6	24.2178
1243.97	48.7598
1247.35	51.9375
1250.72	70.3769
1254.1	37.6523
1257.47	56.4199
1260.85	21.1289
1264.22	26.6436
1267.59	7.08203
1270.97	2.17285
1274.34	17.2852
1277.72	17.3457
1281.09	22.8574
1284.47	26.6152
1287.84	27.1875
1291.22	29.3477
1294.59	41.5254
1297.97	41.0078
1301.34	3.08398
