Measurement: Raman, 532 nm, unoriented, Raman Data Processed
Mineral: Tremolite
Rruff sample: R050498
Ideal chemistry: [box]Ca_2_Mg_5_Si_8_O_22_(OH)_2_
Locality: Inyo County, California, USA
Source: California Institute of Technology
Description: Group of pale blue parallel acicular crystals
Measured chemistry: (Ca_1.95_Na_0.05_)_Σ=2_(Mg_4.75_Fe^3+^_0.13_Fe^2+^_0.07_Mn_0.05_)_Σ=5_(Si_7.92_Al_0.08_)_Σ=8_O_22_(OH)_2_; OH estimated by charge balance
Raman shift (cm-1)	intensity
145.405	0
148.78	7.19116
152.155	31.1621
155.53	97.405
158.905	355.397
162.279	509.86
165.654	261.745
169.029	243.039
172.404	337.99
175.779	592.972
179.153	884.267
182.528	355.459
185.903	64.1226
189.278	4.58472
192.653	3.87451
196.028	12.7522
199.402	10.0625
202.777	54.6812
206.152	178.542
209.527	310.928
212.902	464.737
216.276	670.779
219.651	1026.42
223.026	1463.22
226.401	1007.8
229.776	654.972
233.15	628.039
236.525	387.448
239.9	180.56
243.275	129.697
246.65	169.138
250.025	221.083
253.399	153.513
256.774	99.6081
260.149	102.544
263.524	119.102
266.899	43.1748
270.273	4.3374
273.648	19.9145
277.023	7.67456
280.398	16.0525
283.773	7.28564
287.147	14.8157
290.522	37.7129
293.897	22.7786
297.272	29.4785
300.647	50.9968
304.022	49.8914
307.396	21.4707
310.771	1.23755
314.146	0.736816
317.521	12.0437
320.896	28.4785
324.271	6.82861
327.645	24.7373
331.02	27.1758
334.395	17.4524
337.77	23.1834
341.145	60.3533
344.519	116.131
347.894	153.045
351.269	182.742
354.644	147.637
358.019	141.422
361.394	138.131
364.768	163.269
368.143	203.994
371.518	206.44
374.893	180.641
378.267	135.59
381.642	81.0464
385.017	75.8533
388.392	122.031
391.767	217.971
395.142	253.938
398.516	99.4758
401.891	1.7832
405.266	1.38818
408.641	12.167
412.016	58.856
415.39	75.5478
418.765	73.52
422.14	57.4468
425.515	40.8921
428.89	45.6968
432.265	63.4277
435.639	97.8867
439.014	77.1885
442.389	35.3755
445.764	15.7983
449.139	33.2856
452.514	38.0889
455.888	7.92871
459.263	1.38281
462.638	1.70996
466.013	2.98438
469.388	9.14697
472.762	1.61475
476.137	7.11572
479.512	9.41162
482.887	25.8809
486.262	18.0005
489.637	22.0845
493.011	24.852
496.386	30.0479
499.761	39.1982
503.136	36.8921
506.511	64.7373
509.885	101.299
513.26	155.451
516.635	160.534
520.01	168.738
523.385	186.098
526.76	227.95
530.134	204.797
533.509	128.932
536.884	76.0107
540.259	36.1421
543.634	26.1206
547.008	20.8652
550.383	33.5044
553.758	24.4648
557.133	16.0161
560.508	17.8711
563.882	9.22315
567.257	5.92334
570.632	27.0908
574.007	11.8906
577.382	9.4502
580.756	3.18652
584.131	4.89746
587.506	17.3408
590.881	8.94092
594.256	9.31982
597.631	12.4482
601.005	2.42773
604.38	4.05811
607.755	4.74707
611.13	19.7852
614.505	12.2432
617.88	11.6948
621.254	8.10547
624.629	5.51025
628.004	1.51465
631.379	8.4248
634.754	18.7549
638.128	43.6606
641.503	67.4907
644.878	105.533
648.253	149.751
651.628	226.201
655.002	359.387
658.377	533.946
661.752	863.688
665.127	1249.65
668.502	1889.27
671.876	2552.76
675.251	2481.36
678.626	1418.45
682.001	751.461
685.376	471.568
688.751	339.185
692.125	247.918
695.5	160.491
698.875	100.571
702.25	70.6348
705.625	55.0615
709	51.7451
712.374	23.917
715.749	12.1426
719.124	17.3145
722.499	9.36719
725.874	16.4141
729.248	6.23828
732.623	18.2939
735.998	43.9648
739.373	39.627
742.748	46.4717
746.122	43.2451
749.497	39.7139
752.872	33.666
756.247	18.2207
759.622	17.2148
762.997	21.7197
766.371	19.3711
769.746	36.915
773.121	65.7481
776.496	8.53516
779.871	5.98144
783.245	1.77441
786.62	8.49023
789.995	9.74904
793.37	31.4424
796.745	39.3242
800.12	15.2607
803.494	31.6582
806.869	55.5322
810.244	60.1211
813.619	56.6885
816.994	33.8086
820.368	30.8516
823.743	55.332
827.118	62.4414
830.493	50.6943
833.868	12.373
837.242	1.15039
840.617	46.4688
843.992	49.665
847.367	2.95703
850.742	1.25195
854.117	63.1318
857.491	65.2734
860.866	9.92188
864.241	31.2451
867.616	46.9775
870.991	39.2891
874.365	9.75195
877.74	6.80078
881.115	1.5166
884.49	33.0986
887.865	18.1895
891.24	39.5674
894.614	43.6728
897.989	32.4092
901.364	68.5508
904.739	66.2715
908.114	32.2422
911.489	31.4922
914.863	100.975
918.238	195.59
921.613	246.616
924.988	263.551
928.362	315.082
931.737	326.511
935.112	255.882
938.487	156.418
941.862	171.074
945.237	180.543
948.611	151.826
951.986	75.2402
955.361	61.8711
958.736	70.8457
962.111	69.2227
965.486	60.8379
968.86	28.1328
972.235	26.8652
975.61	23.5605
978.985	80.2148
982.36	26.7031
985.734	37.7988
989.109	23.8691
992.484	5.25781
995.859	7.57031
999.234	24.5332
1002.61	74.4023
1005.98	73.2441
1009.36	74.8652
1012.73	78.4258
1016.11	146.289
1019.48	233.703
1022.86	251.453
1026.23	258.445
1029.61	298.065
1032.98	221.045
1036.36	211.928
1039.73	142.731
1043.11	181.535
1046.48	282.836
1049.86	432.867
1053.23	654.287
1056.61	935.564
1059.98	1049.06
1063.36	790.943
1066.73	407.666
1070.11	271.764
1073.48	140.047
1076.85	102.324
1080.23	71.8789
1083.6	112.785
1086.98	112.644
1090.35	3.4375
1093.73	8.80273
1097.1	16.0723
1100.48	42.1641
1103.85	40.1562
1107.23	86.4394
1110.6	61.8594
1113.98	19.3281
1117.35	12.4434
1120.73	8.83789
1124.1	7.20703
1127.48	58.4258
1130.85	41.9414
1134.23	52.8398
1137.6	57.7402
1140.98	9.42188
1144.35	13.1719
1147.73	77.0137
1151.1	61.1562
1154.47	87.293
1157.85	36.7754
1161.22	39.1445
1164.6	83.4512
1167.97	61.3535
1171.35	35.666
1174.72	40.4004
1178.1	33.748
1181.47	97.9238
1184.85	47.8828
1188.22	62.4219
1191.6	51.6172
1194.97	73.9922
1198.35	90.6777
1201.72	42.0957
1205.1	13.1406
1208.47	22.2656
1211.85	55.2852
1215.22	111.656
1218.6	92.0312
1221.97	150.211
1225.35	116.889
1228.72	26.9648
1232.1	42.5469
1235.47	29.1406
1238.85	35.6367
1242.22	72.8262
1245.6	123.92
1248.97	115.002
1252.35	68.5859
1255.72	24.6797
1259.09	49.6992
1262.47	93.4492
1265.84	59.668
1269.22	149.195
1272.59	66.4102
1275.97	61.3281
1279.34	90.1016
1282.72	128.129
1286.09	102.273
1289.47	46.3672
1292.84	8.47266
1296.22	63.4727
1299.59	156.234
1302.97	0.675781
