Measurement: Raman, 532 nm, unoriented, Raman Data Processed
Mineral: Trevorite
Rruff sample: R140860
Ideal chemistry: Ni^2+^Fe^3+^_2_O_4_
Locality: Bon Accord, Barberton District, Mpumalanga Province, South Africa
Source: Rock Currier
Description: Black octahedral crystals embedded in fine green nepouite matrix
Measured chemistry: (Ni_0.86_Fe^2+^_0.12_Co_0.01_)_Î£=0.99_Fe^3+^_2.00_O_4_
Raman shift (cm-1)	intensity
128.835	0
132.209	14.9724
135.584	0.18689
138.959	9.95396
142.334	12.9524
145.709	12.5377
149.084	25.4414
152.458	18.8945
155.833	16.6176
159.208	8.09802
162.583	1.05725
165.958	9.68872
169.333	6.08545
172.707	16.5605
176.082	6.93408
179.457	12.0188
182.832	10.3655
186.207	17.7379
189.581	27.7737
192.956	21.2401
196.331	23.7756
199.706	20.5645
203.081	20.7654
206.455	17.899
209.83	13.8027
213.205	22.5356
216.58	14.5761
219.955	4.38
223.329	5.85217
226.704	6.54077
230.079	3.11292
233.454	0.091187
236.829	6.93408
240.204	12.3521
243.578	4.80701
246.953	2.55505
250.328	0.051514
253.703	2.73853
257.078	0.299438
260.452	12.4759
263.827	10.4974
267.202	12.2136
270.577	10.7407
273.952	16.8862
277.327	19.3876
280.701	16.1086
284.076	9.68164
287.451	18.6342
290.826	20.4934
294.201	11.7554
297.575	19.7831
300.95	9.52747
304.325	12.2567
307.7	12.1398
311.075	17.6991
314.45	15.2623
317.824	13.1445
321.199	28.157
324.574	36.5493
327.949	32.0565
331.324	30.8591
334.699	35.2656
338.073	37.1157
341.448	31.1404
344.823	17.6406
348.198	9.151
351.573	4.09509
354.947	13.6819
358.322	8.32752
361.697	13.7808
365.072	14.3705
368.447	15.6843
371.822	15.6016
375.196	18.9913
378.571	16.1466
381.946	12.8812
385.321	24.0184
388.696	15.9818
392.07	5.15662
395.445	2.55652
398.82	1.35877
402.195	9.22949
405.57	0.408325
408.945	5.14563
412.319	9.13989
415.694	10.1658
419.069	12.9065
422.444	16.8247
425.818	7.97266
429.193	6.25317
432.568	0.314697
435.943	5.6311
439.318	14.0674
442.693	21.2063
446.067	27.5169
449.442	27.8389
452.817	40.5562
456.192	45.2383
459.567	58.4307
462.942	55.8289
466.316	72.2502
469.691	83.0037
473.066	101.847
476.441	103.571
479.816	125.931
483.19	140.854
486.565	150.179
489.94	142.019
493.315	119.195
496.69	97.4778
500.065	83.9053
503.439	60.4072
506.814	32.3413
510.189	27.051
513.564	17.104
516.939	6.97339
520.313	0.276123
523.688	6.07178
527.063	1.80379
530.438	7.2085
533.813	0.322266
537.188	0.067627
540.562	2.03565
543.937	12.6865
547.312	20.2949
550.687	32.7617
554.062	26.6477
557.436	36.917
560.811	51.22
564.186	58.4885
567.561	60.9224
570.936	65.2529
574.311	57.4414
577.685	58.9058
581.06	51.9871
584.435	47.0608
587.81	34.8838
591.185	21.2202
594.559	18.7893
597.934	8.83154
601.309	4.11939
604.684	2.09277
608.059	3.20239
611.433	1.78149
614.808	12.1421
618.183	0.147949
621.558	6.01489
624.933	0.948242
628.308	3.96753
631.682	7.66235
635.057	16.5347
638.432	9.46143
641.807	25.7407
645.182	31.8672
648.557	31.7703
651.931	41.6709
655.306	31.6309
658.681	36.7222
662.056	46.2119
665.431	49.4092
668.805	62.4985
672.18	51.105
675.555	74.4744
678.93	72.7876
682.305	75.7932
685.679	98.8813
689.054	114.274
692.429	132.425
695.804	145.971
699.179	145.798
702.553	135.402
705.928	119.07
709.303	86.7559
712.678	73.0437
716.053	55.8792
719.428	28.7712
722.802	36.7681
726.177	30.0254
729.552	20.5227
732.927	18.0395
736.302	0.363281
739.677	19.373
743.051	15.0786
746.426	9.87329
749.801	5.50024
753.176	9.36206
756.551	1.48901
759.925	0.648438
763.3	0.480225
766.675	1.25561
770.05	2.24829
773.425	0.175537
776.799	4.22852
780.174	9.36108
783.549	13.6169
786.924	5.8606
790.299	11.8789
793.674	0.524658
797.048	10.0271
800.423	14.5178
803.798	12.7546
807.173	13.8672
810.548	22.0874
813.923	26.0439
817.297	25.741
820.672	24.2082
824.047	25.9263
827.422	14.0615
830.797	15.7395
834.171	22.8613
837.546	21.114
840.921	21.9745
844.296	24.4966
847.671	27.6907
851.045	26.8242
854.42	24.1099
857.795	27.132
861.17	31.0363
864.545	32.3266
867.92	34.4524
871.294	29.0215
874.669	32.0391
878.044	23.4697
881.419	17.3394
884.794	16.2034
888.168	21.0727
891.543	14.9568
894.918	15.0813
898.293	11.2278
901.668	14.1384
905.043	24.3003
908.417	14.137
911.792	5.23877
915.167	8.59106
918.542	2.45142
921.917	2.38769
925.291	14.3088
928.666	5.50171
932.041	1.76587
935.416	0.821777
938.791	7.95257
942.165	1.75855
945.54	21.8689
948.915	12.3594
952.29	10.5725
955.665	4.53662
959.04	7.16406
962.414	0.322998
965.789	9.27075
969.164	8.41626
972.539	16.7048
975.914	16.1235
979.288	29.2649
982.663	13.783
986.038	23.3772
989.413	13.7856
992.788	20.7971
996.163	14.7231
999.537	18.5803
1002.91	16.4548
1006.29	17.408
1009.66	24.9329
1013.04	22.5332
1016.41	19.7512
1019.79	16.0574
1023.16	15.1186
1026.54	18.1883
1029.91	21.7734
1033.29	26.3681
1036.66	28.5632
1040.04	25.0078
1043.41	25.928
1046.79	21.5842
1050.16	16.3294
1053.53	20.8921
1056.91	3.74853
1060.28	12.4463
1063.66	9.78027
1067.03	14.6528
1070.41	14.0266
1073.78	12.1716
1077.16	3.42749
1080.53	9.22974
1083.91	8.62695
1087.28	12.249
1090.66	11.8052
1094.03	2.20142
1097.41	6.95093
1100.78	15.759
1104.16	5.29297
1107.53	3.6438
1110.91	18.3501
1114.28	9.90674
1117.66	2.93188
1121.03	11.8186
1124.41	0.635254
1127.78	5.37793
1131.15	2.20532
1134.53	6.76343
1137.9	15.3713
1141.28	9.37402
1144.65	8.14404
1148.03	2.1626
1151.4	5.19311
1154.78	15.5088
1158.15	20.7222
1161.53	6.01514
1164.9	7.33423
1168.28	12.2153
1171.65	9.51758
1175.03	6.38086
1178.4	22.2449
1181.78	6.05371
1185.15	12.634
1188.53	9.51855
1191.9	16.0193
1195.28	15.8223
1198.65	9.13354
1202.03	9.02124
1205.4	23.5269
1208.78	21.1494
1212.15	8.72266
1215.53	6.87793
1218.9	8.09888
1222.28	17.6977
1225.65	11.5903
1229.03	1.70435
1232.4	8.57983
1235.78	5.4353
1239.15	16.8438
1242.52	11.8848
1245.9	11.5945
1249.27	16.7
1252.65	18.2517
1256.02	9.6311
1259.4	12.6035
1262.77	12.0283
1266.15	9.28857
1269.52	2.72583
1272.9	14.8796
1276.27	14.3113
1279.65	2.24683
1283.02	7.04175
1286.4	1.70825
1289.77	14.9898
1293.15	13.7773
1296.52	8.47363
1299.9	6.03442
