Measurement: Raman, 780 nm, unoriented, Raman Data Processed
Mineral: Tridymite
Rruff sample: R090063
Ideal chemistry: SiO_2_
Locality: Mount Howe 88403 meteorite, likely formed during impact on a chondritic-parent body
Source: Devin L. Schrader and Dante S. Lauretta
Description: Imbedded in a polished slab, associated with kamacite, taenite, troilite, and schreibersite. Masami Kanzaki (Okayama University) suggests this is polytype tridymite MC.
Raman shift (cm-1)	intensity
133.771	0
136.664	16.704
139.557	10.7562
142.449	10.331
145.342	5.15564
148.235	2.00873
151.127	6.43848
154.02	8.23325
156.913	0.891602
159.806	4.00967
162.698	1.1734
165.591	12.6702
168.484	13.6147
171.376	13.3105
174.269	10.5321
177.162	16.811
180.054	18.0334
182.947	21.2015
185.84	21.832
188.733	29.6807
191.625	31.5365
194.518	40.6021
197.411	53.646
200.303	59.4554
203.196	71.3945
206.089	72.4704
208.982	73.9385
211.874	56.8228
214.767	51.3253
217.66	36.0084
220.552	24.0035
223.445	6.61822
226.338	9.56174
229.23	5.59106
232.123	4.93979
235.016	3.36142
237.909	0.37912
240.801	3.54599
243.694	2.70773
246.587	1.07132
249.479	2.6163
252.372	1.25848
255.265	2.40338
258.157	4.77403
261.05	0.218781
263.943	2.85199
266.836	10.9606
269.728	25.738
272.621	23.2741
275.514	39.4344
278.406	45.1865
281.299	47.476
284.192	55.6738
287.084	68.9416
289.977	76.1547
292.87	85.2784
295.762	101.154
298.655	109.073
301.548	100.738
304.441	95.7806
307.333	81.3958
310.226	59.7018
313.119	38.5912
316.011	20.959
318.904	8.10037
321.797	11.4129
324.69	12.5517
327.582	14.9575
330.475	20.4637
333.368	29.1099
336.26	49.9036
339.153	61.1593
342.046	79.8113
344.938	100.087
347.831	110.285
350.724	112.683
353.616	107.246
356.509	88.546
359.402	74.2619
362.295	61.5321
365.187	57.5128
368.08	49.3638
370.973	45.8288
373.865	45.5548
376.758	33.1723
379.651	36.8231
382.543	39.2602
385.436	37.8335
388.329	32.0679
391.222	28.2732
394.114	29.2305
397.007	15.5951
399.9	15.7178
402.792	6.84238
405.685	2.78146
408.578	6.91202
411.471	1.79445
414.363	0.196335
417.256	9.89792
420.149	20.7144
423.041	29.0966
425.934	40.5499
428.827	54.0884
431.719	58.6698
434.612	53.6752
437.505	32.1293
440.397	20.9167
443.29	9.10667
446.183	0.606506
449.076	4.01514
451.968	4.00838
454.861	2.88269
457.754	8.27158
460.646	1.9254
463.539	0.23027
466.432	7.43753
469.325	5.90916
472.217	5.45068
475.11	4.231
478.003	4.63094
480.895	8.97061
483.788	6.47008
486.681	6.44626
489.573	9.48409
492.466	4.70706
495.359	6.9635
498.252	6.5238
501.144	7.20184
504.037	9.31935
506.93	11.3161
509.822	6.84825
512.715	5.38339
515.608	1.16693
518.5	0.498749
521.393	0.592667
524.286	6.66074
527.178	4.15277
530.071	4.53369
532.964	1.10197
535.857	2.5016
538.749	6.30649
541.642	8.56584
544.535	7.24013
547.427	6.81274
550.32	6.26538
553.213	5.2115
556.106	6.06454
558.998	6.95674
561.891	5.46458
564.784	3.77632
567.676	4.86233
570.569	5.14439
573.462	4.3932
576.354	4.82106
579.247	3.32855
582.14	1.75119
585.033	2.8042
587.925	3.3893
590.818	3.27422
593.711	2.12004
596.603	1.85838
599.496	0.679031
602.389	2.45593
605.281	1.95227
608.174	0.440155
611.067	1.97189
613.96	0.639328
616.852	2.0737
619.745	2.64418
622.638	1.23138
625.53	0.114532
628.423	1.38957
631.316	0.104858
634.208	0.171173
637.101	1.53903
639.994	2.27695
642.886	2.27226
645.779	2.20045
648.672	2.69228
651.565	0.33638
654.457	0.391434
657.35	2.37831
660.243	0.091537
663.135	1.87785
666.028	0.413986
668.921	0.166626
671.813	2.43846
674.706	0.275177
677.599	2.08348
680.492	0.16394
683.384	0.833649
686.277	2.23842
689.17	2.48882
692.062	0.396255
694.955	2.41122
697.848	1.68185
700.74	0.684601
703.633	2.04637
706.526	2.38489
709.419	0.167938
712.311	2.30876
715.204	1.49086
718.097	0.637878
720.989	0.641403
723.882	1.77399
726.775	0.478226
729.668	1.14627
732.56	1.95402
735.453	2.22881
738.346	0.78035
741.238	1.5108
744.131	2.79613
747.024	2.9043
749.916	1.48296
752.809	1.85051
755.702	3.82458
758.595	3.28957
761.487	2.61246
764.38	5.42513
767.273	6.37828
770.165	7.429
773.058	7.96353
775.951	11.2539
778.843	13.476
781.736	11.5282
784.629	18.0793
787.521	11.5588
790.414	14.2543
793.307	13.3042
796.2	10.6124
799.092	8.19531
801.985	8.14156
804.878	2.20346
807.77	6.08077
810.663	6.15706
813.556	6.66246
816.448	2.66341
819.341	7.24907
822.234	0.150177
825.127	5.28359
828.019	6.88362
830.912	4.11259
833.805	3.51338
836.697	3.29717
839.59	6.98058
842.483	5.76584
845.375	6.78651
848.268	2.28506
851.161	7.94472
854.053	8.70488
856.946	6.00186
859.839	10.0819
862.732	8.2684
865.624	7.94567
868.517	7.13669
871.41	9.59383
874.302	6.24122
877.195	4.44713
880.088	3.87353
882.981	3.45766
885.873	5.88359
888.766	3.45766
891.659	5.83315
894.551	2.10358
897.444	4.40434
900.337	3.02988
903.229	2.59798
906.122	7.69035
909.015	5.15584
911.908	6.10833
914.8	2.68485
917.693	2.84699
920.586	0.941109
923.478	3.71445
926.371	2.71066
929.264	3.77912
932.156	2.55528
935.049	4.43007
937.942	2.26609
940.835	2.79159
943.727	3.11871
946.62	1.71856
949.513	4.08176
952.405	5.90047
955.298	10.3063
958.191	4.27611
961.083	6.91483
963.976	7.99538
966.869	3.18588
969.761	5.32216
972.654	3.38545
975.547	1.23269
978.44	7.81991
981.332	1.11015
984.225	7.90079
987.118	6.0895
990.01	8.43637
992.903	4.88867
995.796	8.0932
998.688	2.53378
1001.58	0.579285
1004.47	4.36236
1007.37	6.72526
1010.26	2.20771
1013.15	1.59843
1016.04	1.92082
1018.94	5.35228
1021.83	4.67571
1024.72	6.76476
1027.62	1.51057
1030.51	7.51431
1033.4	10.0684
1036.29	4.27648
1039.19	3.02337
1042.08	7.93488
1044.97	6.37156
1047.87	8.37791
1050.76	5.67803
1053.65	8.58514
1056.54	9.99542
1059.43	8.33877
1062.33	4.28261
1065.22	2.29659
1068.11	4.13068
1071.01	10.305
1073.9	10.033
1076.79	14.6278
1079.68	12.2369
1082.58	7.67921
1085.47	9.02277
1088.36	9.28804
1091.26	3.57766
1094.15	2.39294
1097.04	4.7113
1099.93	7.7673
1102.83	2.88307
1105.72	9.5631
1108.61	5.95357
1111.5	3.34287
1114.4	7.56826
1117.29	5.94005
1120.18	4.84863
1123.08	4.43216
1125.97	0.336365
1128.86	4.56258
1131.75	5.16714
1134.64	9.16415
1137.54	6.50074
1140.43	4.89453
1143.32	7.39899
1146.22	3.32987
1149.11	3.88738
1152	5.83456
1154.89	2.53046
1157.79	4.02153
1160.68	5.72201
1163.57	1.71017
1166.46	11.7617
1169.36	6.42664
1172.25	3.49386
1175.14	3.51758
1178.04	0.224739
1180.93	2.41607
1183.82	4.41081
1186.71	5.69328
1189.61	11.6773
1192.5	7.25073
1195.39	4.86213
1198.29	3.26482
1201.18	4.1851
1204.07	7.13917
1206.96	4.5118
1209.86	4.14656
1212.75	3.95653
1215.64	4.50263
1218.53	7.98967
1221.43	7.38498
1224.32	5.18672
1227.21	5.75463
1230.1	3.84158
1233	0.058685
1235.89	4.5811
1238.78	3.07164
1241.67	0.492043
1244.57	2.3771
1247.46	9.6913
1250.35	3.81055
1253.25	3.80392
1256.14	7.93908
1259.03	6.23747
1261.92	5.52846
1264.82	0.090118
1267.71	4.6909
1270.6	4.9283
1273.49	12.3516
1276.39	6.17706
1279.28	7.94237
1282.17	1.45257
1285.07	0
