Measurement: Raman, 532 nm, unoriented, Raman Data Processed
Mineral: Trilithionite
Rruff sample: R050486
Ideal chemistry: KLi_1.5_Al_1.5_(Si_3_Al)O_10_F_2_
Locality: Cotopaxie, Colorado, USA
Source: California Institute of Technology
Description: Microcrystalline massive, no visible indication of foliation, polytype 1M
Measured chemistry: (K_0.98_Ca_0.02_)(Li_0.53_Al_0.47_)_3_(Si_0.79_Al_0.21_)_4_O_10_(OH)_2_
Raman shift (cm-1)	intensity
150.308	0
153.201	0.646515
156.094	4.49689
158.986	1.88351
161.879	4.74863
164.772	7.28665
167.664	9.86249
170.557	11.014
173.45	12.7723
176.343	14.811
179.235	16.8726
182.128	19.1594
185.021	22.788
187.913	27.3658
190.806	35.4636
193.699	42.9349
196.591	48.919
199.484	47.1906
202.377	39.2554
205.269	33.4113
208.162	27.8331
211.055	23.8204
213.948	25.2706
216.84	23.5708
219.733	16.2894
222.626	12.4198
225.518	7.85693
228.411	3.28711
231.304	0.266418
234.196	2.36963
237.089	2.81268
239.982	4.14972
242.875	11.3784
245.767	17.2789
248.66	31.9149
251.553	52.5071
254.445	72.6946
257.338	98.7936
260.231	130.124
263.123	148.029
266.016	139.399
268.909	108.725
271.802	71.4994
274.694	49.0721
277.587	28.7839
280.48	21.8103
283.372	17.4489
286.265	10.6606
289.158	12.6191
292.05	7.42657
294.943	8.41608
297.836	3.23676
300.729	1.61548
303.621	0.922791
306.514	1.87714
309.407	1.56897
312.299	0.374817
315.192	2.01697
318.085	1.66461
320.978	0.348999
323.87	1.21698
326.763	1.62042
329.656	0.45343
332.548	0.748291
335.441	0.131836
338.334	1.60712
341.226	0.39386
344.119	0.609802
347.012	0.362183
349.904	1.12952
352.797	4.37488
355.69	6.46191
358.583	7.71716
361.475	7.9729
364.368	10.4313
367.261	9.95764
370.153	13.5533
373.046	17.0067
375.939	19.7693
378.832	21.0001
381.724	20.7449
384.617	23.3939
387.51	27.3484
390.402	30.3173
393.295	32.4096
396.188	37.7003
399.08	40.6535
401.973	43.0095
404.866	41.2495
407.759	44.7503
410.651	46.1537
413.544	45.11
416.437	39.522
419.329	34.5341
422.222	27.3772
425.115	25.2488
428.007	20.3656
430.9	19.1436
433.793	13.779
436.685	11.9679
439.578	8.01593
442.471	8.20056
445.364	2.5921
448.256	3.60724
451.149	1.99133
454.042	2.16296
456.934	2.97278
459.827	1.42773
462.72	0.678772
465.613	3.38251
468.505	1.73914
471.398	3.36633
474.291	4.17627
477.183	2.35522
480.076	5.40869
482.969	4.01709
485.861	1.25342
488.754	1.57617
491.647	0.316101
494.539	1.67438
497.432	2.29547
500.325	0.770874
503.218	2.29926
506.11	2.65326
509.003	3.01141
511.896	4.32141
514.788	0.929199
517.681	1.51215
520.574	2.57483
523.466	0.388306
526.359	4.73865
529.252	3.61212
532.145	1.24084
535.037	3.45783
537.93	3.97681
540.823	2.89514
543.715	5.1698
546.608	7.80066
549.501	8.5733
552.394	8.46149
555.286	10.5056
558.179	2.67725
561.072	6.23169
563.964	5.17267
566.857	4.31451
569.75	5.33362
572.642	1.95508
575.535	2.14423
578.428	1.74384
581.321	3.02521
584.213	1.05023
587.106	1.81641
589.999	1.28088
592.891	0.41626
595.784	1.46124
598.677	1.49622
601.569	0.104248
604.462	0.520203
607.355	1.40833
610.247	4.28357
613.14	6.38721
616.033	5.23468
618.926	3.84018
621.818	5.38794
624.711	7.19637
627.604	8.19305
630.496	10.2033
633.389	10.6285
636.282	9.80414
639.174	10.6345
642.067	9.49115
644.96	7.87763
647.852	5.00433
650.745	5.83643
653.638	4.7074
656.531	2.71149
659.423	1.41644
662.316	0.214905
665.209	0.42981
668.101	0.45874
670.994	3.01031
673.887	4.13385
676.779	6.2829
679.672	9.44263
682.565	15.5133
685.458	19.746
688.35	26.7733
691.243	39.7092
694.136	49.1415
697.028	61.3873
699.921	67.1624
702.814	70.1388
705.707	66.7789
708.599	59.2523
711.492	41.6565
714.385	27.7916
717.277	18.5529
720.17	12.4717
723.063	6.84009
725.955	5.0351
728.848	2.56201
731.741	3.82886
734.634	2.45068
737.526	1.95129
740.419	4.52753
743.312	6.69641
746.204	7.58923
749.097	8.85278
751.99	9.72839
754.882	10.5269
757.775	10.1008
760.668	8.63281
763.561	9.26654
766.453	5.67127
769.346	4.14868
772.239	1.9024
775.131	5.53613
778.024	1.92578
780.917	4.33441
783.809	3.21912
786.702	0.069214
789.595	1.00909
792.487	0.619934
795.38	2.71472
798.273	1.7583
801.166	0.621277
804.058	0.132813
806.951	2.5918
809.844	3.22845
812.736	2.99146
815.629	2.59345
818.522	1.4599
821.415	5.45093
824.307	1.13043
827.2	0.730225
830.093	1.70673
832.985	0.637207
835.878	3.76404
838.771	3.06793
841.663	5.88202
844.556	3.36621
847.449	3.14313
850.342	3.19543
853.234	4.17279
856.127	3.64301
859.02	3.13477
861.912	3.79272
864.805	2.698
867.698	2.99689
870.591	0.310303
873.483	0.896484
876.376	2.17633
879.269	4.20032
882.161	4.80432
885.054	0.525818
887.947	2.07172
890.839	4.40253
893.732	5.2771
896.625	4.66894
899.518	8.52271
902.41	7.4787
905.303	9.4046
908.196	9.48785
911.088	12.6285
913.981	10.3721
916.874	10.2463
919.766	10.7336
922.659	8.75665
925.552	8.46271
928.444	5.40057
931.337	5.23151
934.23	7.48265
937.123	4.27787
940.015	3.79187
942.908	4.44946
945.801	3.47357
948.693	4.79871
951.586	4.75159
954.479	3.64728
957.371	5.91107
960.264	4.57483
963.157	2.91321
966.05	2.27515
968.942	1.85346
971.835	0.640991
974.728	0.172974
977.62	2.28345
980.513	6.45679
983.406	5.2345
986.298	2.08673
989.191	1.57404
992.084	1.56177
994.977	0.175903
997.869	2.59167
1000.76	3.92163
1003.65	1.61255
1006.55	1.96381
1009.44	3.65655
1012.33	4.77838
1015.23	5.40546
1018.12	4.34186
1021.01	5.40826
1023.9	4.44189
1026.8	3.27917
1029.69	2.93152
1032.58	0.625854
1035.47	1.62317
1038.37	2.86298
1041.26	0.518311
1044.15	3.41748
1047.05	4.69293
1049.94	4.70239
1052.83	3.81262
1055.72	4.06189
1058.62	5.22919
1061.51	5.1427
1064.4	7.64984
1067.29	5.0022
1070.19	5.88361
1073.08	3.86066
1075.97	4.34064
1078.87	3.52008
1081.76	2.49383
1084.65	5.133
1087.54	0.94043
1090.44	1.41528
1093.33	1.74664
1096.22	3.08679
1099.11	4.01294
1102.01	3.29364
1104.9	5.55835
1107.79	5.5993
1110.68	6.69311
1113.58	7.5307
1116.47	4.58099
1119.36	5.69495
1122.26	3.52753
1125.15	5.75983
1128.04	5.92999
1130.93	3.96814
1133.83	5.9906
1136.72	3.13831
1139.61	3.3631
1142.5	3.45862
1145.4	1.88251
1148.29	0.538879
1151.18	0.452698
1154.08	1.24139
1156.97	3.40344
1159.86	1.62085
1162.75	1.77362
1165.65	1.29468
1168.54	0.66571
1171.43	0.30719
1174.32	0.925415
1177.22	1.80157
1180.11	3.3808
1183	3.21973
1185.89	2.19629
1188.79	1.44733
1191.68	2.78918
1194.57	2.20905
1197.47	3.13135
1200.36	6.88751
1203.25	6.17718
1206.14	4.64691
1209.04	4.1471
1211.93	6.00671
1214.82	6.39868
1217.71	5.68585
1220.61	4.87756
1223.5	4.08106
1226.39	6.34448
1229.29	5.84644
1232.18	2.87732
1235.07	3.16339
1237.96	0.770752
1240.86	2.95453
1243.75	1.47949
1246.64	2.8858
1249.53	2.74017
1252.43	3.05511
1255.32	2.646
1258.21	0.501343
1261.11	3.07373
1264	2.6463
1266.89	1.05786
1269.78	4.51428
1272.68	4.42542
1275.57	3.9707
1278.46	5.22772
1281.35	2.4679
1284.25	3.28955
1287.14	3.22668
1290.03	2.92285
1292.92	4.03088
1295.82	0.521729
1298.71	1.57892
1301.6	0.008179
