Measurement: Raman, 780 nm, unoriented, Raman Data Processed
Mineral: Trilithionite
Rruff sample: R050486
Ideal chemistry: KLi_1.5_Al_1.5_(Si_3_Al)O_10_F_2_
Locality: Cotopaxie, Colorado, USA
Source: California Institute of Technology
Description: Microcrystalline massive, no visible indication of foliation, polytype 1M
Measured chemistry: (K_0.98_Ca_0.02_)(Li_0.53_Al_0.47_)_3_(Si_0.79_Al_0.21_)_4_O_10_(OH)_2_
Raman shift (cm-1)	intensity
151.155	0
154.048	1.01392
156.94	0.815208
159.833	0.777512
162.726	0.32244
165.619	0.297142
168.511	0.238302
171.404	0.238025
174.297	0.445166
177.189	1.52822
180.082	3.31714
182.975	5.69372
185.868	5.63371
188.76	8.26885
191.653	11.2815
194.546	13.4142
197.438	15.214
200.331	14.4146
203.224	11.9993
206.117	10.4161
209.009	9.43809
211.902	8.78383
214.795	7.85556
217.687	6.3434
220.58	6.46179
223.473	4.35767
226.365	2.79767
229.258	1.74747
232.151	0.15033
235.043	0.000313
237.936	1.13614
240.829	3.71803
243.722	6.46791
246.614	11.1168
249.507	15.2241
252.4	20.3989
255.292	26.6696
258.185	33.2847
261.078	40.2791
263.971	42.5574
266.863	38.8023
269.756	29.7314
272.649	18.6513
275.541	12.66
278.434	8.71705
281.327	6.87042
284.219	4.80856
287.112	3.18642
290.005	2.04956
292.897	1.96812
295.79	1.86224
298.683	0.945656
301.576	0.159081
304.468	1.02624
307.361	0.176407
310.254	0.3106
313.146	0.417381
316.039	0.184669
318.932	0.307678
321.825	0.482979
324.717	0.556419
327.61	0.213097
330.503	0.797546
333.395	0.273415
336.288	0.269844
339.181	0.52021
342.074	1.08105
344.966	0.04052
347.859	1.87376
350.752	0.797836
353.644	1.09673
356.537	1.31393
359.43	2.26248
362.322	2.15758
365.215	2.6749
368.108	2.83102
371	4.64387
373.893	3.73911
376.786	4.26566
379.679	5.13932
382.571	5.02934
385.464	5.05752
388.357	5.37665
391.249	6.84798
394.142	7.33409
397.035	7.62566
399.928	8.25602
402.82	8.59955
405.713	9.47295
408.606	9.20942
411.498	9.27257
414.391	8.31961
417.284	8.3632
420.176	7.25485
423.069	6.93339
425.962	6.13457
428.854	4.10366
431.747	3.86454
434.64	3.23798
437.533	2.27252
440.425	1.3393
443.318	1.69658
446.211	0.432251
449.103	1.00085
451.996	0.766163
454.889	0.439468
457.781	0.023491
460.674	0.515862
463.567	1.10193
466.46	0.366665
469.352	0.228771
472.245	0.226871
475.138	0.925842
478.03	1.27583
480.923	1.07642
483.816	0.214291
486.709	0.203575
489.601	0.336365
492.494	0.033325
495.387	0.278835
498.279	0.711273
501.172	0.315594
504.065	0.725079
506.957	1.13734
509.85	0.038383
512.743	0.241543
515.636	0.011353
518.528	0.042439
521.421	0.05722
524.314	0.24334
527.206	0.989933
530.099	0.654202
532.992	1.04997
535.885	1.68066
538.777	1.89109
541.67	1.94946
544.563	1.59603
547.455	1.80073
550.348	1.95037
553.241	3.12942
556.133	2.10103
559.026	2.11286
561.919	2.03378
564.812	2.02721
567.704	1.42518
570.597	1.51501
573.49	0.953682
576.382	0.552979
579.275	0.478333
582.168	0.495041
585.06	0.194691
587.953	0.094208
590.846	0.154526
593.739	0.140053
596.631	0.248329
599.524	0.416096
602.417	0.528877
605.309	0.639942
608.202	0.991615
611.095	0.842113
613.987	0.661251
616.88	1.56024
619.773	1.40385
622.665	1.25827
625.558	2.08437
628.451	2.04605
631.344	3.2947
634.236	2.70963
637.129	1.94772
640.022	1.54567
642.914	1.92367
645.807	1.26179
648.7	0.819492
651.592	0.488411
654.485	0.406265
657.378	0.030449
660.271	0.092091
663.163	0.01226
666.056	0.427601
668.949	0.019505
671.841	1.19467
674.734	0.828362
677.627	1.99259
680.519	2.81133
683.412	3.49685
686.305	5.66677
689.198	6.93725
692.09	9.19425
694.983	11.7981
697.876	13.4522
700.769	15.2026
703.661	15.9908
706.554	14.0753
709.447	11.3957
712.339	8.50522
715.232	5.64549
718.125	3.95236
721.017	2.63951
723.91	1.26011
726.803	0.908367
729.696	0.895908
732.588	0.314381
735.481	1.21859
738.374	0.910618
741.266	0.61692
744.159	0.899467
747.052	2.53086
749.944	2.21934
752.837	2.7524
755.73	2.73151
758.622	2.49084
761.515	2.0762
764.408	1.71884
767.301	0.974133
770.193	1.17244
773.086	0.296646
775.979	0.218987
778.871	0.122307
781.764	0.508274
784.657	0.198044
787.549	0.190186
790.442	0.320835
793.335	0.162708
796.228	0.31216
799.12	0.120182
802.013	0.397102
804.906	0.377983
807.798	0.940224
810.691	0.185226
813.584	0.507904
816.477	0.549953
819.369	1.00784
822.262	0.586613
825.155	0.734646
828.047	0.444828
830.94	0.56728
833.833	0.089539
836.726	0.848389
839.618	0.750446
842.511	1.18549
845.404	1.70055
848.296	1.28579
851.189	1.73123
854.082	0.894131
856.974	0.540966
859.867	0.423069
862.76	0.098465
865.653	0.818081
868.545	0.59063
871.438	0.340942
874.331	0.117344
877.223	0.748158
880.116	0.487621
883.009	1.13647
885.901	0.524376
888.794	0.587433
891.687	0.690628
894.58	1.41708
897.472	1.26672
900.365	1.37473
903.258	0.89109
906.15	1.66861
909.043	1.80861
911.936	1.73816
914.828	1.72543
917.721	1.15328
920.614	1.22607
923.506	0.357468
926.399	1.14817
929.292	1.05659
932.185	0.020767
935.077	0.096817
937.97	0.484406
940.863	0.507267
943.755	0.90699
946.648	0.645809
949.541	0.838631
952.433	0.787621
955.326	1.0647
958.219	0.560074
961.112	0.695095
964.004	1.14308
966.897	0.635506
969.79	0.204338
972.682	0.40971
975.575	0.077171
978.468	0.173805
981.361	0.721996
984.253	0.41526
987.146	0.458187
990.039	0.046211
992.931	0.44228
995.824	0.468735
998.717	0.070522
1001.61	0.721233
1004.5	0.37706
1007.39	0.448185
1010.29	0.446228
1013.18	0.6558
1016.07	0.64043
1018.97	0.951977
1021.86	0.545826
1024.75	1.12786
1027.64	0.705048
1030.54	0.296062
1033.43	0.507576
1036.32	0.604675
1039.21	0.238567
1042.11	1.03284
1045	0.881443
1047.89	0.409466
1050.79	0.990936
1053.68	0.916069
1056.57	1.30788
1059.46	1.2109
1062.36	1.49849
1065.25	1.25876
1068.14	1.07372
1071.03	1.22429
1073.93	0.820812
1076.82	0.818527
1079.71	1.18739
1082.61	1.02797
1085.5	1.24446
1088.39	1.34678
1091.28	1.33596
1094.18	0.878765
1097.07	0.820953
1099.96	1.21689
1102.85	0.339123
1105.75	0.844193
1108.64	1.08098
1111.53	1.05263
1114.42	1.40189
1117.32	0.795864
1120.21	1.26335
1123.1	1.19228
1126	0.755486
1128.89	0.614872
1131.78	0.223022
1134.67	0.123863
1137.57	0.299328
1140.46	0.179638
1143.35	0.25322
1146.24	0.270134
1149.14	0.493755
1152.03	0.191685
1154.92	0.313244
1157.82	0.090427
1160.71	0.556797
1163.6	0.422939
1166.49	0.356991
1169.39	0.091213
1172.28	0.097336
1175.17	1.19142
1178.06	0.428291
1180.96	1.09084
1183.85	0.456078
1186.74	1.11137
1189.63	0.200291
1192.53	0.772774
1195.42	0.659729
1198.31	0.412693
1201.21	0.883102
1204.1	1.12029
1206.99	0.613098
1209.88	1.22939
1212.78	0.971657
1215.67	0.363708
1218.56	0.460373
1221.45	0.183319
1224.35	0.3601
1227.24	0.57103
1230.13	0.613861
1233.03	0.561966
1235.92	0.720104
1238.81	0.363037
1241.7	0.672012
1244.6	0.293842
1247.49	0.594341
1250.38	0.033329
1253.28	0.808151
1256.17	0.924347
1259.06	0.572205
1261.95	0.472755
1264.85	0.502907
1267.74	0.638355
1270.63	0.061371
1273.52	0.466824
1276.42	0.056381
1279.31	0.591167
1282.2	0.618996
1285.09	0.170925
