Measurement: Raman, 532 nm, unoriented, Raman Data Processed
Mineral: Tritomite-(Ce)
Rruff sample: R060370
Ideal chemistry: Ce_5_(SiO_4_,BO_4_)_3_(OH,O)
Locality: Norra Karr Complex, near Granna, Ostergotsland, Sweden
Source: Michael Scott
Description: Reddish-brown vitreous fragment - metamict
Raman shift (cm-1)	intensity
126.343	0
129.718	47.0225
133.093	217.723
136.467	335.497
139.842	420.281
143.217	200.877
146.592	288.771
149.967	276.533
153.342	329.257
156.716	187.664
160.091	250.419
163.466	264.459
166.841	218.008
170.216	205.075
173.59	162.852
176.965	204.296
180.34	215.537
183.715	184.817
187.09	201.764
190.464	192.263
193.839	157.975
197.214	128.281
200.589	60.1777
203.964	62.0879
207.339	90.9014
210.713	102.619
214.088	64.042
217.463	47.3335
220.838	65.5649
224.213	20.1514
227.587	38.0669
230.962	55.2261
234.337	3.66113
237.712	3.0918
241.087	2.92236
244.462	35.3813
247.836	79.1987
251.211	11.5581
254.586	47.0254
257.961	110.426
261.336	149.83
264.711	167.004
268.085	208.677
271.46	205.319
274.835	230.817
278.21	169.017
281.585	266.318
284.959	290.063
288.334	287.185
291.709	241.499
295.084	190.755
298.459	190.424
301.833	153.358
305.208	149.414
308.583	161.616
311.958	142.557
315.333	42.2593
318.708	35.9477
322.082	26.5347
325.457	81.1191
328.832	39.3105
332.207	3.48096
335.582	6.52979
338.957	27.7725
342.331	51.0557
345.706	6.03516
349.081	37.0185
352.456	88.939
355.831	140.865
359.205	207.935
362.58	284.222
365.955	396.735
369.33	500.642
372.705	625.913
376.079	729.627
379.454	761.401
382.829	821.095
386.204	799.487
389.579	856.585
392.954	765.073
396.328	733.646
399.703	661.474
403.078	614.886
406.453	603.755
409.828	586.938
413.203	524.027
416.577	486.943
419.952	473.901
423.327	392.552
426.702	367.539
430.077	285.015
433.451	284.826
436.826	255.137
440.201	213.533
443.576	166.321
446.951	174.305
450.326	87.6299
453.7	74.5349
457.075	38.0044
460.45	45.3345
463.825	51.2856
467.2	4.09009
470.574	26.6099
473.949	0.744385
477.324	12.3118
480.699	22.2803
484.074	39.397
487.448	32.7075
490.823	41.0242
494.198	13.0405
497.573	62.5349
500.948	94.2708
504.323	81.8789
507.698	140.196
511.072	186.343
514.447	213.983
517.822	239.334
521.197	263.136
524.571	266.918
527.946	245.138
531.321	205.56
534.696	137.194
538.071	60.885
541.446	71.0588
544.82	86.9099
548.195	47.5654
551.57	20.0015
554.945	10.5127
558.32	4.73877
561.695	1.55371
565.069	14.8606
568.444	13.5881
571.819	34.4395
575.194	24.145
578.569	15.2354
581.943	58.6218
585.318	21.043
588.693	70.5857
592.068	28.499
595.443	62.7517
598.818	107.716
602.192	110.215
605.567	128.333
608.942	158.407
612.317	131.367
615.692	164.503
619.067	148.354
622.441	54.2517
625.816	161.467
629.191	129.361
632.566	107.436
635.941	33.8455
639.315	33.7922
642.69	57.0999
646.065	35.9902
649.44	40.8108
652.815	45.5964
656.19	4.47803
659.564	37.7327
662.939	16.8357
666.314	26.8826
669.689	27.2153
673.064	25.8271
676.438	5.54858
679.813	14.5232
683.188	41.9153
686.563	75.8921
689.938	48.8359
693.312	87.897
696.687	51.6077
700.062	79.5016
703.437	75.46
706.812	69.08
710.187	78.8444
713.561	80.2194
716.936	105.085
720.311	82.5944
723.686	113.946
727.061	111.894
730.435	120.47
733.81	115.337
737.185	111.915
740.56	78.6438
743.935	69.7067
747.31	98.2347
750.684	90.4944
754.059	32.3715
757.434	68.3226
760.809	8.22473
764.184	28.8339
767.558	22.1416
770.933	43.8723
774.308	23.1195
777.683	4.20642
781.058	15.7266
784.433	16.5345
787.807	34.9784
791.182	4.72082
794.557	10.5978
797.932	84.4983
801.307	76.4224
804.682	87.6777
808.056	170.49
811.431	264.597
814.806	395.112
818.181	494.865
821.556	707.145
824.93	840.512
828.305	1094.93
831.68	1426.88
835.055	1624.71
838.43	1852.62
841.805	1995.03
845.179	2099.33
848.554	2102.89
851.929	1983.31
855.304	1791.89
858.679	1532.01
862.054	1312.44
865.428	1086.21
868.803	823.524
872.178	670.088
875.553	541.127
878.928	400.689
882.302	293.547
885.677	187.653
889.052	184.488
892.427	192.849
895.802	130.916
899.177	106.344
902.551	115.101
905.926	76.3801
909.301	59.7622
912.676	71.0249
916.05	62.4868
919.425	67.4246
922.8	51.5603
926.175	110.627
929.55	156.195
932.925	212.533
936.299	289.841
939.674	357.252
943.049	405.25
946.424	405.686
949.799	443.668
953.174	427.941
956.548	350.403
959.923	305.822
963.298	265.687
966.673	179.069
970.048	120.135
973.422	30.5523
976.797	51.3159
980.172	27.8835
983.547	11.4565
986.922	11.7756
990.297	4.57275
993.671	1.53076
997.046	9.79443
1000.42	22.0818
1003.8	17.1753
1007.17	4.65527
1010.54	10.7228
1013.92	12.4358
1017.29	42.1757
1020.67	46.663
1024.05	38.2665
1027.42	54.3199
1030.79	57.5917
1034.17	66.9844
1037.54	86.2669
1040.92	95.1536
1044.29	36.4567
1047.67	68.641
1051.04	29.957
1054.42	89.8713
1057.79	85.0533
1061.17	63.4587
1064.54	76.2247
1067.92	70.079
1071.29	36.0729
1074.67	48.0819
1078.04	19.8412
1081.42	37.1907
1084.79	37.6454
1088.17	34.3254
1091.54	51.5885
1094.92	35.0504
1098.29	44.2424
1101.67	54.4279
1105.04	61.2753
1108.41	55.9291
1111.79	8.79712
1115.16	17.1167
1118.54	49.2992
1121.91	43.1451
1125.29	43.308
1128.66	67.8637
1132.04	66.3455
1135.41	66.5601
1138.79	68.8554
1142.16	53.582
1145.54	33.8529
1148.91	25.9418
1152.29	42.2874
1155.66	16.7564
1159.04	38.2401
1162.41	30.2601
1165.79	35.1522
1169.16	11.5953
1172.54	33.4879
1175.91	44.6938
1179.29	46.8966
1182.66	16.9605
1186.04	26.2487
1189.41	17.5404
1192.79	6.38452
1196.16	10.147
1199.54	39.0676
1202.91	22.2463
1206.29	32.6862
1209.66	25.1882
1213.04	27.856
1216.41	40.1542
1219.78	10.4934
1223.16	29.2444
1226.53	26.3217
1229.91	32.838
1233.28	20.5731
1236.66	6.28882
1240.03	32.1422
1243.41	25.1672
1246.78	53.8767
1250.16	40.9158
1253.53	31.3192
1256.91	16.4992
1260.28	10.4835
1263.66	21.6887
1267.03	25.5642
1270.41	9.1571
1273.78	61.3115
1277.16	35.5298
1280.53	2.02136
1283.91	12.0635
1287.28	55.9646
1290.66	23.2761
1294.03	31.302
1297.4	8.43457
1300.78	0
