Measurement: Raman, 532 nm, unoriented, Raman Data Processed
Mineral: Troilite
Rruff sample: R070242
Ideal chemistry: Fe^2+^S^2-^
Locality: Union Mine (Salt Lake-California Mine), Low Divide District, Del Norte County, California, USA
Source: Michael Scott
Description: Fine grained massive, brownish-gray with metallic luster
Raman shift (cm-1)	intensity
167.5	0
170.393	29.8049
173.286	23.6528
176.178	13.6211
179.071	9.43262
181.964	22.4028
184.856	18.9995
187.749	53.5933
190.642	65.4531
193.535	62.3706
196.427	86.606
199.32	165.753
202.213	134.122
205.105	92.3687
207.998	27.8535
210.891	22.5308
213.783	12.9165
216.676	46.813
219.569	28.8677
222.462	32.582
225.354	115.144
228.247	1.36035
231.14	43.6182
234.032	38.5488
236.925	12.9463
239.818	26.8369
242.71	63.9273
245.603	23.752
248.496	145.168
251.388	48.5171
254.281	52.4927
257.174	51.5469
260.067	70.7061
262.959	83.6616
265.852	115.735
268.745	235.375
271.637	279.241
274.53	377.09
277.423	387.787
280.315	385.025
283.208	276.975
286.101	179.497
288.994	131.672
291.886	166.081
294.779	175.98
297.672	112.6
300.564	93.979
303.457	128.243
306.35	103.092
309.243	75.8652
312.135	95.9224
315.028	31.2808
317.921	26.9814
320.813	2.83643
323.706	52.6899
326.599	54.167
329.491	18.4463
332.384	1.4668
335.277	11.7236
338.17	64.3301
341.062	40.4507
343.955	51.2808
346.848	74.5693
349.74	42.6699
352.633	17.5395
355.526	21.4946
358.418	25.6118
361.311	23.2056
364.204	48.3027
367.097	87.0019
369.989	88.0488
372.882	36.8804
375.775	25.6865
378.667	71.9346
381.56	73.1782
384.453	119.618
387.346	73.4165
390.238	40.061
393.131	85.231
396.024	43.4565
398.916	84.8423
401.809	52.7773
404.702	47.9453
407.594	70.1318
410.487	62.8799
413.38	22.4785
416.272	30.9668
419.165	33.271
422.058	90.6001
424.951	38.1484
427.843	25.2876
430.736	17.1689
433.629	52.8838
436.521	22.2119
439.414	79.7271
442.307	32.8257
445.2	21.6519
448.092	68.3101
450.985	31.5322
453.878	115.418
456.77	80.0405
459.663	139.868
462.556	163.829
465.448	230.877
468.341	257.831
471.234	205.884
474.127	251.505
477.019	135.436
479.912	138.029
482.805	176.547
485.697	125.48
488.59	46.0029
491.483	75.3315
494.375	63.2319
497.268	84.4434
500.161	77.5781
503.053	92.5562
505.946	111.404
508.839	51.7627
511.732	132.672
514.624	86.2188
517.517	115.803
520.41	80.1328
523.302	32.5615
526.195	18.0566
529.088	45.8848
531.981	43.417
534.873	33.7349
537.766	25.0332
540.659	71.5986
543.551	80.9121
546.444	41.6484
549.337	6.19873
552.229	78.9473
555.122	71.4536
558.015	43.2949
560.908	7.55957
563.8	41.9072
566.693	28.6836
569.586	29.8623
572.478	44.6621
575.371	10.0215
578.264	4.28613
581.156	32.6177
584.049	14.123
586.942	75.0391
589.835	55.3852
592.727	43.5713
595.62	56.8242
598.513	48.0977
601.405	66.6919
604.298	23.6816
607.191	43.2749
610.083	50.7124
612.976	8.01416
615.869	43.7173
618.762	26.4702
621.654	73.2207
624.547	119.905
627.44	120.863
630.332	91.3159
633.225	97.3867
636.118	64.3696
639.01	166.448
641.903	129.043
644.796	107.589
647.689	176.594
650.581	175.277
653.474	82.5337
656.367	134.849
659.259	180.907
662.152	147.362
665.045	154.462
667.938	175.816
670.83	184.565
673.723	171.711
676.616	192.25
679.508	148.44
682.401	210.685
685.294	176.085
688.186	160.719
691.079	160.383
693.972	144.987
696.865	125.507
699.757	105.95
702.65	139.208
705.543	180.021
708.435	145.634
711.328	161.043
714.221	120.345
717.113	78.4819
720.006	54.0508
722.899	142.253
725.792	90.8086
728.684	86.7441
731.577	68.3345
734.47	118.956
737.362	56.9194
740.255	43.5933
743.148	102.077
746.04	66.7954
748.933	4.91699
751.826	92.7607
754.719	32.813
757.611	71.4409
760.504	23.0757
763.397	18.4263
766.289	23.3315
769.182	5.76416
772.075	16.0449
774.967	73.4116
777.86	36.0674
780.753	81.9522
783.646	30.229
786.538	99.8027
789.431	50.1309
792.324	91.4204
795.216	56.1919
798.109	38.2803
801.002	35.3018
803.894	24.2227
806.787	46.8657
809.68	31.6255
812.573	0.980469
815.465	38.0962
818.358	75.8843
821.251	70.5513
824.143	18.8486
827.036	20.0742
829.929	118.961
832.822	8.53516
835.714	41.3125
838.607	37.8452
841.5	30.9609
844.392	130.324
847.285	66.6987
850.178	59.1245
853.07	8.57129
855.963	9.08252
858.856	59.5601
861.749	120.555
864.641	49.584
867.534	81.3711
870.427	43.2339
873.319	45.5884
876.212	36.2515
879.105	81.1914
881.997	24.9224
884.89	94.1436
887.783	118.091
890.676	81.1836
893.568	72.0928
896.461	54.1235
899.354	82.9141
902.246	2.89697
905.139	24.8047
908.032	83.7588
910.924	17.6865
913.817	77.9761
916.71	45.4946
919.602	54.9194
922.495	70.5879
925.388	108.086
928.281	88.2725
931.173	84.5688
934.066	62.6416
936.959	20.3252
939.851	42.125
942.744	79.5562
945.637	63.8774
948.529	74.0869
951.422	120.028
954.315	93.4644
957.208	40.2651
960.1	41.9331
962.993	39.5405
965.886	76.6499
968.778	64.2432
971.671	96.1641
974.564	30.0064
977.457	132.081
980.349	75.1997
983.242	15.8125
986.135	47.5947
989.027	4.6333
991.92	26.6274
994.813	34.9937
997.705	8.83105
1000.6	102.771
1003.49	23.9048
1006.38	68.6636
1009.28	58.9961
1012.17	61.583
1015.06	60.4341
1017.95	36.5718
1020.85	86.6904
1023.74	132.145
1026.63	50.105
1029.53	28.4653
1032.42	54.8491
1035.31	86.6382
1038.2	61.6475
1041.1	61.9429
1043.99	70.9365
1046.88	67.4116
1049.77	97.6143
1052.67	88.6851
1055.56	41.4443
1058.45	28.624
1061.35	39.2305
1064.24	37.023
1067.13	89.7759
1070.02	108.55
1072.92	34.8267
1075.81	55.9009
1078.7	132.559
1081.59	42.3608
1084.49	114.389
1087.38	11.3438
1090.27	18.0225
1093.16	97.9346
1096.06	68.9346
1098.95	16.3115
1101.84	4.44531
1104.73	27.3408
1107.63	21.3721
1110.52	77.5303
1113.41	35.7461
1116.31	113.815
1119.2	115.909
1122.09	115.537
1124.98	103.348
1127.88	55.7783
1130.77	60.669
1133.66	32.206
1136.56	31.8691
1139.45	120.524
1142.34	86.0762
1145.23	77.8193
1148.13	106.782
1151.02	112.981
1153.91	172.117
1156.8	145.936
1159.7	119.259
1162.59	89.7451
1165.48	30.7422
1168.38	116.303
1171.27	60.667
1174.16	51.5381
1177.05	54.7578
1179.95	83.6572
1182.84	82.8955
1185.73	99.4932
1188.62	92.0303
1191.52	68.3037
1194.41	96.291
1197.3	45.668
1200.19	35.3389
1203.09	29.0596
1205.98	27.7129
1208.87	24.1611
1211.77	29.5996
1214.66	29.5312
1217.55	71.6045
1220.44	17.3213
1223.34	68.4795
1226.23	13.0166
1229.12	68.5381
1232.01	132.297
1234.91	36.0225
1237.8	90.8603
1240.69	47.1435
1243.59	108.96
1246.48	24.6953
1249.37	54.1123
1252.26	33.834
1255.16	89.8975
1258.05	115.861
1260.94	52.5049
1263.83	62.6211
1266.73	51.7207
1269.62	80.3164
1272.51	65.6289
1275.4	46.8809
1278.3	76.2158
1281.19	72.7998
1284.08	9.05273
1286.98	60.8428
1289.87	68.8916
1292.76	25.2598
1295.65	95.6064
1298.55	120.305
1301.44	112.723
1304.33	41.3555
1307.22	84.5293
1310.12	64.8984
1313.01	47.0185
