Measurement: Raman, 532 nm, unoriented, Raman Data RAW
Mineral: Trona
Rruff sample: R050228
Ideal chemistry: Na_3_(HCO_3_)(CO_3_)2H_2_O
Locality: Stauffer mine, Green River, Wyoming, USA
Source: Marcus Origlieri
Description: Aggregate of pale yellowish brown flattened crystals
Measured chemistry: Na_3.00_(CO_3_)(HCO_3_)Â·2H_2_O ; CO2 and H not measured but estimated by stoichiometry. The lighter inclusion is dolomite.
Raman shift (cm-1)	intensity
154.975	0
157.868	78.8164
160.76	32.3086
163.653	293.516
166.546	518.887
169.438	628.18
172.331	815.481
175.224	1036.93
178.117	1143.45
181.009	1167.84
183.902	1357.18
186.795	1217.39
189.687	1099.12
192.58	333.969
195.473	387.238
198.365	141.828
201.258	45.8477
204.151	93.8555
207.043	92.3984
209.936	252.629
212.829	403.41
215.722	328.773
218.614	357.582
221.507	487.773
224.4	525.641
227.292	455.965
230.185	312.602
233.078	280.453
235.97	80.5039
238.863	45.6523
241.756	244.133
244.649	176.16
247.541	165.66
250.434	100.438
253.327	98.9492
256.219	44.8633
259.112	43.1328
262.005	141.695
264.897	173.164
267.79	259.742
270.683	139.289
273.576	151.078
276.468	273.246
279.361	141.238
282.254	334.785
285.146	257.731
288.039	121.922
290.932	248.969
293.825	138.535
296.717	88.2148
299.61	131.043
302.503	92.3672
305.395	14.2969
308.288	84.6484
311.181	4.92969
314.073	42.2266
316.966	133.918
319.859	293.715
322.752	32.7344
325.644	137.688
328.537	76.8828
331.43	109.812
334.322	180.535
337.215	119.828
340.108	269.879
343	410.531
345.893	283.965
348.786	361.695
351.678	291.469
354.571	166.981
357.464	189.281
360.356	87.5508
363.249	42.707
366.142	295.406
369.035	231.848
371.927	49.6875
374.82	136.539
377.713	152.449
380.605	145.203
383.498	321.734
386.391	109.824
389.284	93.125
392.176	124.688
395.069	66.9023
397.962	178.672
400.854	224.59
403.747	2.33594
406.64	153.527
409.532	107.281
412.425	50.6328
415.318	193.523
418.211	212.219
421.103	101.016
423.996	122.34
426.889	132.547
429.781	77.6836
432.674	85.2695
435.567	238.141
438.459	117.199
441.352	161.422
444.245	262.25
447.137	84.4688
450.03	142.762
452.923	247.262
455.816	148.242
458.708	78.668
461.601	72.0898
464.494	39.6406
467.386	92.1914
470.279	105.266
473.172	219.746
476.065	281.426
478.957	249.945
481.85	88.1641
484.743	73.1211
487.635	95.8516
490.528	31.1641
493.421	170.691
496.313	146.91
499.206	108.457
502.099	62.0234
504.991	183.828
507.884	174.191
510.777	268.051
513.67	218.832
516.562	212.969
519.455	172.086
522.348	310.496
525.24	162.031
528.133	36.6445
531.026	215.691
533.918	175.66
536.811	170.07
539.704	305.481
542.597	214.965
545.489	72.5781
548.382	32.5977
551.275	66.8984
554.167	115.898
557.06	1.55469
559.953	28.6641
562.846	200.164
565.738	104.305
568.631	281.703
571.524	227.883
574.416	153.832
577.309	293.973
580.202	176.508
583.094	367.941
585.987	186.562
588.88	388.84
591.773	226.633
594.665	291.117
597.558	245.348
600.451	164.941
603.343	229.066
606.236	188.734
609.129	284.535
612.021	154.953
614.914	236.934
617.807	129.742
620.699	444.598
623.592	151.394
626.485	212.688
629.378	50.6992
632.27	60.0781
635.163	127.621
638.056	33.4648
640.948	52.3711
643.841	138.394
646.734	157.812
649.626	218.43
652.519	155.152
655.412	108.965
658.305	96.5508
661.197	15.7422
664.09	203.008
666.983	40.1484
669.875	297.199
672.768	542.309
675.661	463.027
678.553	308.602
681.446	190.066
684.339	240.562
687.232	215.188
690.124	25.832
693.017	71.2266
695.91	246.684
698.802	65.2617
701.695	439.277
704.588	284.488
707.481	286.652
710.373	370.109
713.266	336.566
716.159	384.519
719.051	375.996
721.944	123.012
724.837	79.6133
727.729	296.453
730.622	265.594
733.515	110.457
736.408	34.6289
739.3	10.3711
742.193	160.656
745.086	259.277
747.978	306.594
750.871	104.379
753.764	3.8125
756.656	232.324
759.549	166.586
762.442	142.449
765.335	0.308594
768.227	257.231
771.12	103.113
774.013	168.863
776.905	72.8984
779.798	49.2109
782.691	14.2969
785.583	244.473
788.476	262.906
791.369	78.6758
794.261	7.55859
797.154	42.3086
800.047	139.824
802.939	19.3789
805.832	89.0781
808.725	95.1914
811.618	90.8906
814.51	100.555
817.403	221.566
820.296	154.418
823.188	148.902
826.081	173.391
828.974	194.938
831.866	94.2617
834.759	167.516
837.652	85.4609
840.545	195.269
843.437	145.094
846.33	228.012
849.223	64.5195
852.115	5.85156
855.008	48.6797
857.901	257.691
860.793	223.539
863.686	167.902
866.579	87.0039
869.472	91.6719
872.364	38.4258
875.257	44.5742
878.15	269.168
881.042	117.039
883.935	121.375
886.828	44.0664
889.721	261.25
892.613	390.988
895.506	455.496
898.399	248.191
901.291	462.484
904.184	231.324
907.077	98.5742
909.969	66.7617
912.862	312.152
915.755	190.644
918.648	135.539
921.54	155.219
924.433	296.457
927.326	502.008
930.218	281.238
933.111	313.309
936.004	226.141
938.896	211.203
941.789	589.785
944.682	464.184
947.574	379.379
950.467	269.43
953.36	237.805
956.253	244.441
959.145	309.742
962.038	241.094
964.931	370.668
967.823	2.83984
970.716	22.7305
973.609	13.3789
976.501	181.336
979.394	121.188
982.287	542.914
985.18	142.894
988.072	285.793
990.965	86.375
993.858	149.356
996.75	152.75
999.643	258.148
1002.54	52.5
1005.43	30.043
1008.32	259.16
1011.21	362.824
1014.11	133.402
1017	178.547
1019.89	187.859
1022.78	63.5117
1025.68	186.84
1028.57	211.539
1031.46	374.184
1034.36	420.352
1037.25	596.32
1040.14	694.656
1043.03	589.453
1045.93	702.894
1048.82	900.465
1051.71	1127.54
1054.6	1705
1057.5	2298.36
1060.39	2882.19
1063.28	2725.84
1066.17	2172.27
1069.07	1290.39
1071.96	853.598
1074.85	236.066
1077.75	417.734
1080.64	304.898
1083.53	244.859
1086.42	310.391
1089.32	203.109
1092.21	208.051
1095.1	208.828
1097.99	147.641
1100.89	212.797
1103.78	50.8945
1106.67	172.617
1109.57	192.512
1112.46	46.9648
1115.35	52.1562
1118.24	35.9531
1121.14	98.7773
1124.03	1.51562
1126.92	59.8789
1129.82	15.0391
1132.71	20.1719
1135.6	201.312
1138.49	15.6367
1141.38	89.6562
1144.28	36.3984
1147.17	202.309
1150.06	181.617
1152.96	217.945
1155.85	290.977
1158.74	311.758
1161.63	290.758
1164.53	239.348
1167.42	525.805
1170.31	336.113
1173.2	209.773
1176.1	306.336
1178.99	353.676
1181.88	428.305
1184.78	561.477
1187.67	323.191
1190.56	348.109
1193.45	390.578
1196.35	300.113
1199.24	413.848
1202.13	269.742
1205.03	434.312
1207.92	358.633
1210.81	352.559
1213.7	496.539
1216.6	328.875
1219.49	387.266
1222.38	268.035
1225.27	390.746
1228.17	426.074
1231.06	362.637
1233.95	361.086
1236.84	46.4961
1239.74	78.2852
1242.63	45.6016
1245.52	224.129
1248.41	324.754
1251.31	420.867
1254.2	473.098
1257.09	243.57
1259.99	349.934
1262.88	414.043
1265.77	322.254
1268.66	3.33984
1271.56	338.969
1274.45	319.988
1277.34	319.457
1280.23	291.824
1283.13	55.6523
1286.02	109.793
1288.91	7.75781
1291.81	80.8828
