Measurement: Raman, 785 nm, unoriented, Raman Data Processed
Mineral: Tsepinite-Na
Rruff sample: R070241
Ideal chemistry: (Na,H_3_O,K,Sr,Ba,[box])_12_Ti^4+^_8_(Si_4_O_12_)_4_(OH,O)_8_12-16H_2_O
Locality: Lepkhe-Nel'm Mt. (Lepkhe-Nelm Mt.), Seidozero Lake, Lovozero Massif, Kola Peninsula, Murmanskaja Oblast', Northern Region, Russia
Source: Michael Scott
Description: Subparallel pale tan prismatic crystals with vitreous luster
Raman shift (cm-1)	intensity
157.178	0
160.071	20.5781
162.964	20.4253
165.856	125.142
168.749	192.926
171.642	259.468
174.534	202.53
177.427	201.741
180.32	298.322
183.212	343.089
186.105	460.57
188.998	478.454
191.891	588.111
194.783	726.487
197.676	823.045
200.569	994.844
203.461	1032.42
206.354	1235.31
209.247	1308.16
212.139	1393.06
215.032	1583.41
217.925	1686.02
220.818	1697.22
223.71	1793.94
226.603	1760.78
229.496	1663.77
232.388	1530.61
235.281	1407.47
238.174	1281.03
241.066	1172.43
243.959	991.243
246.852	892.114
249.745	746.248
252.637	732.044
255.53	680.26
258.423	611.146
261.315	557.129
264.208	585.431
267.101	561.968
269.993	533.661
272.886	545.747
275.779	539.963
278.672	581.935
281.564	637.414
284.457	718.405
287.35	678.135
290.242	666.284
293.135	708.515
296.028	662.306
298.921	606.474
301.813	624.547
304.706	673.899
307.599	671.28
310.491	644.641
313.384	607.269
316.277	529.364
319.169	499.391
322.062	462.809
324.955	397.982
327.847	368.024
330.74	303.33
333.633	263.746
336.526	180.41
339.418	160.979
342.311	159.806
345.204	109.01
348.096	82.5005
350.989	61.1616
353.882	35.5342
356.774	17.9292
359.667	46.6631
362.56	92.7393
365.452	101.845
368.345	136.655
371.238	67.5979
374.131	54.6851
377.023	32.1074
379.916	18.0395
382.809	10.3752
385.701	26.9292
388.594	56.6382
391.487	77.1594
394.38	138.979
397.272	158.744
400.165	123.748
403.058	63.5029
405.95	48.5742
408.843	21.2056
411.736	3.37183
414.628	12.4443
417.521	87.9609
420.414	10.7759
423.307	198.952
426.199	221.378
429.092	300.092
431.985	454.457
434.877	562.601
437.77	691.059
440.663	729.39
443.555	807.54
446.448	848.87
449.341	901.174
452.234	1045.66
455.126	1248.39
458.019	1504.21
460.912	1581.78
463.804	1544.42
466.697	1303.82
469.59	1056.59
472.483	961.661
475.375	924.29
478.268	967.178
481.161	1153.75
484.053	1179.15
486.946	1251.91
489.839	1257.69
492.731	1259.87
495.624	1370.33
498.517	1450.57
501.409	1708.26
504.302	1994.3
507.195	2299.6
510.088	2631.49
512.98	2765.49
515.873	2917.6
518.766	2961.17
521.658	2797.24
524.551	2576.83
527.444	2306.22
530.337	1923.08
533.229	1623.63
536.122	1353.33
539.015	1089.77
541.907	894.673
544.8	697.387
547.693	540.437
550.585	460.067
553.478	366.42
556.371	311.765
559.263	279.64
562.156	184.608
565.049	104.019
567.942	112.27
570.834	97.2473
573.727	110.236
576.62	47.5566
579.512	21.428
582.405	28.5454
585.298	7.74829
588.19	5.46582
591.083	58.8733
593.976	48.6602
596.869	58.6033
599.761	48.2871
602.654	80.4492
605.547	77.8096
608.439	47.3643
611.332	46.6599
614.225	9.75684
617.117	23.7686
620.01	20.6821
622.903	54.022
625.795	144.666
628.688	139.314
631.581	117.727
634.474	178.808
637.366	217.904
640.259	277.704
643.152	313.622
646.044	389.225
648.937	464.34
651.83	547.86
654.722	515.088
657.615	597.781
660.508	579.616
663.401	580.626
666.293	633.019
669.186	548.923
672.079	550.163
674.971	501.781
677.864	488.359
680.757	445.96
683.649	387.081
686.542	350.941
689.435	286.03
692.328	270.377
695.22	269.042
698.113	288.232
701.006	311.678
703.898	282.126
706.791	307.85
709.684	329.582
712.577	334.521
715.469	341.093
718.362	424.793
721.255	426.299
724.147	473.197
727.04	455.794
729.933	532.498
732.825	567.595
735.718	594.808
738.611	619.841
741.504	608.865
744.396	594.73
747.289	619.046
750.182	585.946
753.074	646.635
755.967	542.814
758.86	513.045
761.752	534.5
764.645	498.579
767.538	459.276
770.431	440.559
773.323	468.857
776.216	466.756
779.109	486.64
782.001	480.63
784.894	368.166
787.787	370.042
790.679	362.141
793.572	340.248
796.465	304.974
799.357	246.181
802.25	202.385
805.143	194.196
808.036	107.43
810.928	144.197
813.821	59.8838
816.714	21.342
819.606	2.91235
822.499	12.8567
825.392	43.9995
828.284	61.979
831.177	86.3762
834.07	64.2446
836.963	36.0335
839.855	3.33716
842.748	7.37842
845.641	66.5933
848.533	136.126
851.426	205.366
854.319	317.977
857.212	410.13
860.104	572.674
862.997	782.913
865.89	1057.68
868.782	1336.95
871.675	1680.89
874.568	2182.65
877.46	2371.77
880.353	2514.16
883.246	2495.69
886.139	2383.91
889.031	2171.44
891.924	1948.15
894.817	1775.28
897.709	1673.38
900.602	1592.84
903.495	1579.11
906.388	1572.18
909.28	1602.14
912.173	1582.28
915.066	1620.08
917.958	1611.88
920.851	1624.3
923.744	1593.05
926.636	1598.32
929.529	1647.83
932.422	1590.94
935.314	1552.11
938.207	1470.72
941.1	1381.3
943.993	1288.71
946.885	1157.18
949.778	1058.64
952.671	893.839
955.563	771.454
958.456	616.49
961.349	438.359
964.241	275.182
967.134	190.699
970.027	81.6249
972.92	20.4452
975.812	20.6344
978.705	18.4597
981.598	45.0543
984.49	36.8016
987.383	0.243408
990.276	22.9518
993.168	10.7399
996.061	16.3221
998.954	11.2612
1001.85	28.8025
1004.74	16.6697
1007.63	25.1154
1010.52	3.77307
1013.42	11.4537
1016.31	19.9027
1019.2	33.8381
1022.1	50.6589
1024.99	35.8411
1027.88	15.1009
1030.77	53.3335
1033.67	64.8711
1036.56	84.3608
1039.45	108.188
1042.34	76.0671
1045.24	124.782
1048.13	120.061
1051.02	144.903
1053.91	91.765
1056.81	104.543
1059.7	70.594
1062.59	80.9647
1065.49	8.0332
1068.38	43.6013
1071.27	3.24146
1074.16	9.81226
1077.06	4.30908
1079.95	67.1426
1082.84	115.669
1085.73	140.379
1088.63	200.728
1091.52	329.131
1094.41	366.258
1097.31	422.34
1100.2	456.741
1103.09	485.956
1105.98	575.154
1108.88	605.419
1111.77	693.956
1114.66	708.895
1117.56	788.747
1120.45	830.272
1123.34	874.523
1126.23	925.508
1129.12	957.412
1132.02	1020.85
1134.91	1013.35
1137.8	1017.11
1140.7	1092.95
1143.59	1072.15
1146.48	1067.12
1149.37	1023.07
1152.27	1009.32
1155.16	931.26
1158.05	861.942
1160.94	804.496
1163.84	689.064
1166.73	614.762
1169.62	497.069
1172.52	431.106
1175.41	364.305
1178.3	241.19
1181.19	178.194
1184.09	97.3064
1186.98	19.6057
1189.87	3.69873
1192.77	30.7051
1195.66	38.3884
1198.55	13.7937
1201.44	17.9709
1204.34	27.0767
1207.23	37.5403
1210.12	23.9812
1213.01	109.891
1215.91	142.468
1218.8	92.9927
1221.69	141.649
1224.58	100.491
1227.48	161.212
1230.37	66.3804
1233.26	69.5938
1236.15	98.4292
1239.05	53.5488
1241.94	0.617188
