Measurement: Raman, 532 nm, unoriented, Raman Data Processed
Mineral: Tsepinite-Ca
Rruff sample: R060833
Ideal chemistry: (Ca,K,Na)_2-x_(Ti^4+^,Nb^5+^)_2_Si_4_O_12_(OH,O)_2_4H_2_O
Locality: Hackmann Valley, Yukspor Mountain, Khibiny, Kola, Russia
Source: Michael Scott
Description: Groups of tan colored parallel prismatic crystals associated with eudialyte and arfvedsonite
Raman shift (cm-1)	intensity
178.413	0
181.305	44.0586
184.198	187.133
187.091	363.039
189.983	522.981
192.876	744.731
195.769	732.297
198.662	1419.5
201.554	1922.96
204.447	2451.4
207.34	3431.5
210.232	3958.36
213.125	4498.71
216.018	5188.06
218.911	5731.33
221.803	6143.76
224.696	6577.54
227.589	6712.18
230.481	6768.58
233.374	6886.9
236.267	6505.57
239.159	6012.77
242.052	5629.67
244.945	5310.16
247.838	4973.35
250.73	4453.83
253.623	3979.75
256.516	3550.85
259.408	3473.46
262.301	3646.91
265.194	3747.49
268.086	3519.23
270.979	3429.42
273.872	3429.34
276.764	3619.25
279.657	3772.3
282.55	3932.54
285.442	3840.08
288.335	3864.14
291.228	3880.05
294.121	3869.15
297.013	3752.7
299.906	4075.32
302.799	4365.78
305.691	4570.8
308.584	4582.01
311.477	3985.23
314.37	3469.4
317.262	2742.1
320.155	1942.12
323.048	1641.47
325.94	1255.05
328.833	841.305
331.726	868.344
334.618	383.32
337.511	111.316
340.404	35.0273
343.296	247.856
346.189	212.297
349.082	87.4297
351.975	159.301
354.867	134.762
357.76	12.8164
360.653	113.695
363.545	89.9609
366.438	98.2812
369.331	147.234
372.224	111.676
375.116	73.8047
378.009	245.375
380.902	108.445
383.794	134.231
386.687	372.258
389.58	396.078
392.472	495.402
395.365	343.07
398.258	315.078
401.151	220.457
404.043	104.644
406.936	115.559
409.829	84.4023
412.721	126.617
415.614	408.898
418.507	312.113
421.399	556.168
424.292	537.676
427.185	517.305
430.077	870.43
432.97	1158.81
435.863	1382.63
438.755	1886.22
441.648	2073.1
444.541	2239.5
447.434	2328.77
450.326	2369.78
453.219	2731.54
456.112	3176.94
459.004	3509.56
461.897	3555.65
464.79	3116.22
467.683	2841.79
470.575	2291.44
473.468	1767.67
476.361	1280.79
479.253	772.074
482.146	791.516
485.039	932.809
487.931	983.832
490.824	750.84
493.717	996.531
496.61	1244.85
499.502	1670.97
502.395	2558.66
505.288	3617.5
508.18	4768.81
511.073	5790.46
513.966	6684.75
516.858	7243.15
519.751	7453.83
522.644	7117.11
525.536	6429.16
528.429	5639.68
531.322	4625.87
534.215	3820.58
537.107	3200.14
540	2955.31
542.893	2655.11
545.785	2664.99
548.678	2131.5
551.571	1853.13
554.463	1743.76
557.356	1475.57
560.249	1307.86
563.141	1246.04
566.034	1133.21
568.927	1121.09
571.82	798.082
574.712	765.769
577.605	535.144
580.498	118.078
583.39	135.019
586.283	26.6562
589.176	72.7109
592.068	71.9492
594.961	96.9648
597.854	126.551
600.747	121.617
603.639	40.3203
606.532	131.559
609.425	145.566
612.317	93.6328
615.21	99.8164
618.103	158.281
620.995	98.4531
623.888	118.383
626.781	213.07
629.673	15.1758
632.566	228.644
635.459	85.3477
638.352	49.5938
641.244	454.066
644.137	598.34
647.03	1193.38
649.922	1814.26
652.815	2031.07
655.708	2145.16
658.601	2279.3
661.493	2089.53
664.386	2331.08
667.279	2340.67
670.171	2543.84
673.064	2271.27
675.957	1905.74
678.849	1558.09
681.742	1602.73
684.635	1628.74
687.528	1434.33
690.42	1479.03
693.313	1451.81
696.206	1495.41
699.098	1135.13
701.991	1104.43
704.884	1147.21
707.776	1440.33
710.669	1295.33
713.562	1386.06
716.455	1874.49
719.347	1819.15
722.24	1913.52
725.133	2034.78
728.025	2115.54
730.918	2211.11
733.811	1957.28
736.703	2188.09
739.596	2389.62
742.489	2421.47
745.381	2793.31
748.274	3088.73
751.167	2664.55
754.059	2621.78
756.952	2650.57
759.845	2216.01
762.738	2227.76
765.63	2246.24
768.523	2281.86
771.416	2354.68
774.308	2174.43
777.201	1986.84
780.094	1902.23
782.986	1858.23
785.879	1941.77
788.772	1614.75
791.665	1779.2
794.557	1714.12
797.45	1681.63
800.343	1477.52
803.235	1210.1
806.128	1089.05
809.021	865.641
811.913	821.641
814.806	666.305
817.699	468.797
820.592	344.66
823.484	237.816
826.377	223.969
829.27	121.43
832.162	28.3398
835.055	174
837.948	148.746
840.841	209.285
843.733	129.191
846.626	169.934
849.519	65.3711
852.411	78.1797
855.304	40.4023
858.197	386.68
861.089	953.691
863.982	1389.09
866.875	2004.15
869.767	2548.54
872.66	3368.02
875.553	4076.16
878.446	4847.29
881.338	5147.31
884.231	5065.03
887.124	4819.2
890.016	4788.7
892.909	5102.46
895.802	5231.35
898.694	5495.14
901.587	5618.59
904.48	5804.51
907.372	6330.71
910.265	6732.5
913.158	7074.9
916.051	7319.04
918.943	7439.75
921.836	7842.59
924.729	8231.54
927.621	8163.55
930.514	8018.84
933.407	7498.47
936.299	7039.48
939.192	6724.9
942.085	6068.51
944.977	5275.84
947.87	4336.97
950.763	3745.99
953.656	2956.09
956.548	2304.34
959.441	1717.52
962.334	1149
965.226	775.156
968.119	105.273
971.012	35.4414
973.904	110.348
976.797	8.89062
979.69	4.61328
982.583	57.2617
985.475	26.5625
988.368	14.9648
991.261	1.12891
994.153	90.6484
997.046	217.246
999.939	252.203
1002.83	427.773
1005.72	503.402
1008.62	421.394
1011.51	355.426
1014.4	233.297
1017.29	281.203
1020.19	317.586
1023.08	422.156
1025.97	616.562
1028.87	820.504
1031.76	763.926
1034.65	779.574
1037.54	978.062
1040.44	1103.19
1043.33	1080.38
1046.22	778.269
1049.12	748.406
1052.01	833.094
1054.9	1319.66
1057.79	1149.09
1060.68	610.102
1063.58	266.336
1066.47	185.426
1069.36	152.152
1072.26	254.949
1075.15	415.629
1078.04	399.445
1080.93	375.348
1083.83	557.613
1086.72	831.394
1089.61	832.981
1092.51	797.766
1095.4	1156.01
1098.29	1095.31
1101.18	986
1104.08	1120.88
1106.97	961.969
1109.86	940.484
1112.75	833.805
1115.65	856.441
1118.54	627.379
1121.43	426.953
1124.33	394.602
1127.22	522.301
1130.11	827.406
1133	744.25
1135.9	491.086
1138.79	232.914
1141.68	332.574
1144.57	321.273
1147.47	74.6914
1150.36	80.6641
1153.25	312.988
1156.14	407.191
1159.04	444.906
1161.93	220.277
1164.82	18.7344
1167.71	194.465
1170.61	68.1406
1173.5	209.012
1176.39	347.305
1179.29	256.887
1182.18	562.527
1185.07	379.957
1187.96	292.762
1190.86	179.531
1193.75	214.508
1196.64	92.293
1199.54	210.769
1202.43	213.812
1205.32	280.508
1208.21	195.625
1211.11	211.238
1214	357.91
1216.89	316.144
1219.78	284.984
1222.68	187.754
1225.57	230.356
1228.46	208.973
1231.36	209.809
1234.25	141.973
1237.14	371.367
1240.03	321.547
1242.92	484.828
1245.82	376.969
1248.71	592.852
1251.6	384.234
1254.5	235.559
1257.39	322.254
1260.28	173.852
1263.17	172.547
1266.07	46.0078
1268.96	213.938
1271.85	563.184
1274.74	543.871
1277.64	558.203
1280.53	254.016
1283.42	329.582
1286.32	350.481
1289.21	254.898
1292.1	102.891
