Measurement: Raman, 785 nm, unoriented, Raman Data Processed
Mineral: Tsepinite-Ca
Rruff sample: R060833
Ideal chemistry: (Ca,K,Na)_2-x_(Ti^4+^,Nb^5+^)_2_Si_4_O_12_(OH,O)_2_4H_2_O
Locality: Hackmann Valley, Yukspor Mountain, Khibiny, Kola, Russia
Source: Michael Scott
Description: Groups of tan colored parallel prismatic crystals associated with eudialyte and arfvedsonite
Raman shift (cm-1)	intensity
180.346	37.7432
183.238	119.921
186.131	459.989
189.024	739.569
191.917	854.492
194.809	1209.58
197.702	1504.47
200.595	1776.25
203.487	2218.58
206.38	2353.42
209.273	2671.19
212.165	3174.12
215.058	3586.4
217.951	4118.06
220.844	4491.06
223.736	4760.51
226.629	4834.06
229.522	4993.22
232.414	4977.59
235.307	4810.89
238.2	4650.91
241.092	4394.53
243.985	3921.53
246.878	3597.86
249.77	3299.65
252.663	3136.91
255.556	2892.72
258.449	2975.82
261.341	2739.67
264.234	2638.04
267.127	2419.31
270.019	2434.51
272.912	2372.42
275.805	2404.03
278.697	2419.22
281.59	2575.75
284.483	2643.34
287.376	2661.06
290.268	2462.23
293.161	2563.25
296.054	2416.6
298.946	2538.49
301.839	2712.48
304.732	2835.43
307.625	2985.84
310.517	2719.66
313.41	2385.63
316.303	2067.32
319.195	1695.3
322.088	1343.03
324.981	1208.71
327.873	953.909
330.766	738.232
333.659	461.797
336.551	322.469
339.444	86.8447
342.337	14.0586
345.23	27.1904
348.122	32.1973
351.015	40.7012
353.908	22.4609
356.8	65.0518
359.693	129.371
362.586	202.559
365.478	185.848
368.371	236.725
371.264	88.9258
374.157	5.79492
377.049	17.918
379.942	61.0264
382.835	21.4834
385.727	2.28223
388.62	117.995
391.513	192.494
394.406	262.396
397.298	342.601
400.191	260.781
403.084	241.391
405.976	105.842
408.869	81.0498
411.762	111.76
414.654	174.745
417.547	132.342
420.44	180.935
423.332	205.272
426.225	315.732
429.118	323.76
432.011	509.176
434.903	702.987
437.796	1017.37
440.689	1165.64
443.581	1329.59
446.474	1466.47
449.367	1485.94
452.26	1726.79
455.152	2021.35
458.045	2524.36
460.938	3042.41
463.83	3001.28
466.723	2578.49
469.616	1959.34
472.508	1431.21
475.401	994.394
478.294	622.126
481.187	551.712
484.079	381.87
486.972	467.088
489.865	451.153
492.757	547.452
495.65	684.076
498.543	1039.61
501.435	1444.42
504.328	2003.38
507.221	2808.04
510.113	3420.24
513.006	4120.18
515.899	4601.06
518.792	4838.46
521.684	4599.15
524.577	4189.52
527.47	3572.62
530.362	3025.79
533.255	2459.7
536.148	1997.6
539.04	1711.37
541.933	1390.65
544.826	1177.67
547.719	1091.64
550.611	952.513
553.504	858.788
556.397	721.314
559.289	704.41
562.182	699.919
565.075	553.57
567.967	449.36
570.86	368.96
573.753	322.303
576.646	276.994
579.538	243.672
582.431	131.805
585.324	96.9238
588.216	80.2432
591.109	43.5342
594.002	13.752
596.894	100.461
599.787	88.2559
602.68	78.3652
605.573	27.6895
608.465	115.056
611.358	91.334
614.251	71.9531
617.143	4
620.036	90.8457
622.929	49.1787
625.822	58.2227
628.714	37.373
631.607	138.68
634.5	207.121
637.392	285.782
640.285	471.079
643.178	701.69
646.07	865.927
648.963	1064.01
651.856	1230.1
654.749	1507.27
657.641	1555.55
660.534	1711.58
663.427	1830.19
666.319	1675.6
669.212	1675.34
672.105	1783.43
674.997	1773.59
677.89	1373.51
680.783	1258.98
683.676	1152.34
686.568	1095.71
689.461	949.989
692.354	870.42
695.246	961.698
698.139	949.901
701.032	857.955
703.924	888.598
706.817	855.839
709.71	920.456
712.602	969.336
715.495	963.204
718.388	984.653
721.281	1027.16
724.173	1087.15
727.066	1025.38
729.959	1081.49
732.851	1158.68
735.744	1060.24
738.637	1098.15
741.529	1133.17
744.422	1200.03
747.315	1189.21
750.208	1266.08
753.1	1226.61
755.993	1208.76
758.886	1199.56
761.778	1151.09
764.671	1155.48
767.564	1102.41
770.457	1017
773.349	927.119
776.242	909.023
779.135	817.453
782.027	840.213
784.92	796.688
787.813	749.213
790.705	810.649
793.598	692.795
796.491	686.708
799.384	589.626
802.276	504.052
805.169	496.819
808.062	471.675
810.954	422.335
813.847	355.288
816.74	339.532
819.632	218.078
822.525	167.242
825.418	136.56
828.311	49.1065
831.203	42.648
834.096	94.5225
836.989	138.186
839.881	136.173
842.774	95.1709
845.667	101.88
848.559	39.5488
851.452	4.2583
854.345	111.449
857.238	133.793
860.13	333.019
863.023	471.83
865.916	747.975
868.808	1088.02
871.701	1538.72
874.594	1956.26
877.486	2342.4
880.379	2583.8
883.272	2500.67
886.165	2337.68
889.057	2153.09
891.95	2095.32
894.843	2052.24
897.735	2015.56
900.628	2055.86
903.521	2207.25
906.413	2387.84
909.306	2557.09
912.199	2811.86
915.092	2810.36
917.984	2989.04
920.877	3009.2
923.77	2998.47
926.662	3027.98
929.555	3011.81
932.448	2996.69
935.341	2832.9
938.233	2649.76
941.126	2434.51
944.019	2178.97
946.911	1916.89
949.804	1679.59
952.697	1375.96
955.589	1076.76
958.482	785.457
961.375	570.099
964.268	399.286
967.16	198.213
970.053	85.8484
972.946	6.92847
975.838	16.3655
978.731	50.7629
981.624	11.7637
984.516	22.325
987.409	70.7063
990.302	20.3345
993.194	9.76123
996.087	26.8059
998.98	121.105
1001.87	145.905
1004.76	131.263
1007.66	171.881
1010.55	94.2161
1013.44	161.579
1016.34	176.922
1019.23	157.998
1022.12	197.613
1025.01	224.72
1027.91	229.574
1030.8	288.532
1033.69	271.542
1036.59	323.79
1039.48	320.794
1042.37	367.253
1045.26	365.773
1048.16	348.612
1051.05	316.015
1053.94	306.904
1056.83	208.695
1059.73	153.572
1062.62	128.344
1065.51	21.2859
1068.4	34.5386
1071.3	35.2617
1074.19	5.16528
1077.08	27.123
1079.98	15.5513
1082.87	30.9663
1085.76	15.0366
1088.65	67.3511
1091.55	83.2632
1094.44	116.701
1097.33	120.536
1100.22	89.7163
1103.12	133.69
1106.01	106.309
1108.9	66.624
1111.8	122.366
1114.69	153.223
1117.58	199.503
1120.47	224.571
1123.37	204.747
1126.26	262.494
1129.15	309.448
1132.04	354.821
1134.94	374.586
1137.83	417.475
1140.72	438.967
1143.62	437.506
1146.51	398.905
1149.4	492.55
1152.29	466.37
1155.19	451.124
1158.08	368.937
1160.97	393.442
1163.86	325.734
1166.76	231.202
1169.65	199.167
1172.54	113.705
1175.43	91.2022
1178.33	63.2852
1181.22	0.527344
1184.11	82.8765
1187.01	37.4775
1189.9	21.2949
1192.79	51.8301
1195.68	94.7432
1198.58	129.557
1201.47	225.958
1204.36	226.37
1207.25	205.524
1210.15	261.25
1213.04	276.161
1215.93	333.528
1218.83	286.324
1221.72	329.552
1224.61	290.852
1227.5	149.549
1230.4	144.525
1233.29	72.6631
1236.18	32.9268
1239.07	7.04443
