Measurement: Raman, 532 nm, unoriented, Raman Data Processed
Mineral: Tsepinite-Na
Rruff sample: R070241
Ideal chemistry: (Na,H_3_O,K,Sr,Ba,[box])_12_Ti^4+^_8_(Si_4_O_12_)_4_(OH,O)_8_12-16H_2_O
Locality: Lepkhe-Nel'm Mt. (Lepkhe-Nelm Mt.), Seidozero Lake, Lovozero Massif, Kola Peninsula, Murmanskaja Oblast', Northern Region, Russia
Source: Michael Scott
Description: Subparallel pale tan prismatic crystals with vitreous luster
Raman shift (cm-1)	intensity
157.376	0
160.75	47.7129
164.125	6.56787
167.5	5.98144
170.875	86.6309
174.25	64.9482
177.625	138.467
180.999	221.105
184.374	329.868
187.749	480.255
191.124	657.969
194.499	928.495
197.874	1140.46
201.248	1367.63
204.623	1657.68
207.998	1966.63
211.373	2351.91
214.748	2653.01
218.122	2872.22
221.497	2957.31
224.872	2991.65
228.247	2921.35
231.622	2736.71
234.996	2476.61
238.371	2220.22
241.746	1952.44
245.121	1629.7
248.496	1523.09
251.871	1286.77
255.245	1202.48
258.62	1084.35
261.995	1040.38
265.37	935.242
268.745	963.343
272.12	964.581
275.494	925.825
278.869	950.462
282.244	1060.04
285.619	1035.44
288.994	981.926
292.368	1086.44
295.743	1005.71
299.118	995.92
302.493	1048.56
305.868	1110.96
309.243	1158.19
312.617	1059.74
315.992	978.835
319.367	909.429
322.742	823.196
326.117	675.248
329.491	565.911
332.866	434.384
336.241	392.556
339.616	311.178
342.991	273.554
346.365	201.554
349.74	130.228
353.115	48.0776
356.49	17.5068
359.865	84.4287
363.24	124.921
366.614	142.226
369.989	80.2031
373.364	106.436
376.739	1.99512
380.114	4.42285
383.488	17.1455
386.863	159.907
390.238	203.311
393.613	152.914
396.988	157.97
400.363	98.2852
403.737	23.6738
407.112	30.9751
410.487	45.6812
413.862	26.7622
417.237	24.8394
420.611	102.455
423.986	253.185
427.361	533.456
430.736	655.331
434.111	926.976
437.486	1083.25
440.86	1249.33
444.235	1389.08
447.61	1613.45
450.985	1859.43
454.36	2359.43
457.735	2729.01
461.109	2944.81
464.484	2587.85
467.859	2045.28
471.234	1633.06
474.609	1531.06
477.983	1545.24
481.358	1756.65
484.733	1947.6
488.108	2125.83
491.483	2299.26
494.858	2583.79
498.232	3072.99
501.607	3738.71
504.982	4391.35
508.357	5001.36
511.732	5411.04
515.106	5560.77
518.481	5506.15
521.856	5069.81
525.231	4484.46
528.606	3768.46
531.981	3174.62
535.355	2625.18
538.73	2158.68
542.105	1716.12
545.48	1392.74
548.855	1196.01
552.229	950.512
555.604	826.221
558.979	633.423
562.354	479.539
565.729	427.615
569.104	252.329
572.478	205.76
575.853	184.541
579.228	106.374
582.603	21.1973
585.978	18.4058
589.352	60.5503
592.727	126.141
596.102	139.295
599.477	130.524
602.852	77.9248
606.227	114.977
609.601	3.29736
612.976	28.2715
616.351	62.1934
619.726	87.5249
623.101	156.539
626.476	164.391
629.85	177.576
633.225	278.069
636.6	366.08
639.975	442.817
643.35	523.531
646.724	616.992
650.099	713.141
653.474	775.984
656.849	888.582
660.224	859.188
663.598	926.215
666.973	853.227
670.348	918.895
673.723	894.584
677.098	779.002
680.472	635.515
683.847	585.033
687.222	613.558
690.597	385.927
693.972	327.69
697.347	332.337
700.721	368.644
704.096	481.185
707.471	534.609
710.846	592.025
714.221	650.343
717.596	775.443
720.97	898.017
724.345	989.894
727.72	1083.12
731.095	1179.22
734.47	1299.55
737.844	1301.03
741.219	1416.36
744.594	1449.28
747.969	1507.81
751.344	1472.79
754.719	1418.87
758.093	1375.56
761.468	1358.97
764.843	1304.2
768.218	1261.46
771.593	1203.93
774.967	1207.98
778.342	1157.03
781.717	1128.82
785.092	1156.38
788.467	992.776
791.842	920.721
795.216	795.979
798.591	734.262
801.966	550.26
805.341	455.97
808.716	369.082
812.091	281.022
815.465	153.948
818.84	99.7329
822.215	40.5185
825.59	35.9966
828.965	97.5981
832.339	108.939
835.714	142.237
839.089	65.2505
842.464	4.97266
845.839	116.652
849.213	275.274
852.588	452.127
855.963	662.096
859.338	971.718
862.713	1387.12
866.087	1957.75
869.462	2621.93
872.837	3394.29
876.212	4042.49
879.587	4403.04
882.962	4445.21
886.337	4235.97
889.711	3904.98
893.086	3568.51
896.461	3491.84
899.836	3355.48
903.211	3394.23
906.585	3496.51
909.96	3581.38
913.335	3631.78
916.71	3775.97
920.085	3805.4
923.46	3907.77
926.834	3812.24
930.209	3758.5
933.584	3646.76
936.959	3473.95
940.334	3270.15
943.708	2946.04
947.083	2640.21
950.458	2241.67
953.833	1829.75
957.208	1407.82
960.582	970.388
963.957	637.824
967.332	364.834
970.707	104.437
974.082	19.6594
977.457	86.2034
980.831	39.3071
984.206	98.1338
987.581	8.94653
990.956	11.3809
994.331	25.6655
997.705	51.7009
1001.08	23.0745
1004.46	109.228
1007.83	117.714
1011.21	106.667
1014.58	167.662
1017.95	204.566
1021.33	236.373
1024.7	301.964
1028.08	364.285
1031.45	420.182
1034.83	536.136
1038.2	608.43
1041.58	580.756
1044.95	640.782
1048.33	640.158
1051.7	647.98
1055.08	648.066
1058.45	618.327
1061.83	498.564
1065.2	410.662
1068.58	371.338
1071.95	407.52
1075.33	395.042
1078.7	449.645
1082.08	556.396
1085.45	653.193
1088.83	693.713
1092.2	724.52
1095.58	862.534
1098.95	880.425
1102.33	883.424
1105.7	921.908
1109.07	893.272
1112.45	853.961
1115.82	834.731
1119.2	753.138
1122.57	701.654
1125.95	613.398
1129.32	544.724
1132.7	412.183
1136.07	347.803
1139.45	225.699
1142.82	165.176
1146.2	114.467
1149.57	67.8328
1152.95	9.23169
1156.32	2.10718
1159.7	0.236084
1163.07	13.9519
1166.45	18.4812
1169.82	34.9968
1173.2	15.0864
1176.57	5.65869
1179.95	2.78906
1183.32	33.3257
1186.69	27.1804
1190.07	41.1248
1193.44	34.0632
1196.82	36.1499
1200.19	84.6636
1203.57	52.5266
1206.94	67.7629
1210.32	81.4143
1213.69	98.9131
1217.07	71.5542
1220.44	98.7324
1223.82	91.4319
1227.19	115.625
1230.57	101.669
1233.94	72.5542
1237.32	53.3828
1240.69	83.4988
1244.07	74.073
1247.44	44.3782
1250.82	62.1882
1254.19	55.3332
1257.57	31.6011
1260.94	85.687
1264.32	72.6804
1267.69	65.6304
1271.07	55.5645
1274.44	52.5688
1277.82	62.2588
1281.19	47.9905
1284.57	39.8486
1287.94	49.8943
1291.32	45.0024
1294.69	14.6726
1298.06	70.8672
1301.44	59.095
1304.81	7.37256
1308.19	21.3962
1311.56	15.1831
1314.94	0
