Measurement: Raman, 780 nm, unoriented, Raman Data Processed
Mineral: Tsumoite
Rruff sample: R080089
Ideal chemistry: BiTe
Locality: Sredniy Skarn, Tyrnyauz Mo-W Deposit, Baksan Valley, Kabardino-Balkarian Republic, Northern Caucasus Region, Russia
Source: Michael Scott
Description: Aggregates of metallic grey platelets associated with orange grossular
Raman shift (cm-1)	intensity
120.968	0
124.343	1.87356
127.718	5.02187
131.093	11.1504
134.468	16.2044
137.842	17.3813
141.217	16.2356
144.592	14.3985
147.967	10.2111
151.342	5.92855
154.716	1.92899
158.091	0.317944
161.466	0.129082
164.841	0.488127
168.216	0.293729
171.591	0.137865
174.965	0.008718
178.34	0.653828
181.715	1.78072
185.09	1.85794
188.465	3.50985
191.839	3.97152
195.214	4.79274
198.589	6.01211
201.964	6.81385
205.339	6.1182
208.714	7.32499
212.088	7.24201
215.463	7.64869
218.838	7.9564
222.213	6.789
225.588	7.04178
228.962	5.69188
232.337	5.56098
235.712	5.13707
239.087	3.89496
242.462	3.75134
245.837	3.7205
249.211	3.41093
252.586	3.63864
255.961	3.41587
259.336	2.04167
262.711	3.07818
266.085	2.60203
269.46	0.506446
272.835	1.5739
276.21	0.659477
279.585	1.57542
282.959	1.31221
286.334	0.001215
289.709	0.898124
293.084	1.21362
296.459	0.496814
299.834	0.787386
303.208	1.03321
306.583	0.561937
309.958	0.838483
313.333	0.651494
316.708	0.734712
320.082	0.463401
323.457	0.576108
326.832	0.789857
330.207	0.362392
333.582	0.658603
336.957	0.281743
340.331	0.246937
343.706	0.023317
347.081	0.862598
350.456	1.09149
353.831	0.279428
357.205	0.13191
360.58	1.38633
363.955	1.37654
367.33	0.652239
370.705	1.37626
374.079	0.780153
377.454	0.273983
380.829	0.459049
384.204	0.104306
387.579	0.313439
390.954	0.423704
394.328	0.166855
397.703	0.039022
401.078	0.904466
404.453	1.25467
407.828	0.502162
411.202	0.29809
414.577	0.672265
417.952	0.440681
421.327	1.0556
424.702	0.083858
428.077	0.86724
431.451	0.702349
434.826	0.877009
438.201	0.67073
441.576	1.00779
444.951	0.021164
448.325	0.883478
451.7	0.563393
455.075	0.353744
458.45	1.23994
461.825	0.847214
465.2	1.29104
468.574	0.621413
471.949	0.519873
475.324	0.076671
478.699	0.809151
482.074	0.624346
485.449	0.970281
488.823	1.33111
492.198	0.118487
495.573	0.259698
498.948	1.00376
502.323	0.163877
505.697	0.962612
509.072	0.76443
512.447	0.314866
515.822	0.203668
519.197	0.597014
522.572	0.427399
525.946	0.203296
529.321	1.53885
532.696	0.358764
536.071	0.894836
539.446	0.451501
542.82	1.00474
546.195	0.522094
549.57	0.530169
552.945	1.55674
556.32	0.804145
559.694	0.480799
563.069	0.572213
566.444	1.3943
569.819	0.85831
573.194	1.08129
576.568	0.724358
579.943	0.165869
583.318	0.932305
586.693	0.019393
590.068	0.943146
593.443	1.11225
596.817	0.674272
600.192	0.731863
603.567	0.49163
606.942	1.07113
610.317	0.826921
613.692	1.27777
617.066	0.373244
620.441	0.288279
623.816	0.572332
627.191	0.592159
630.566	0.91094
633.94	1.0826
637.315	0.651312
640.69	0.861177
644.065	0.455961
647.44	1.25935
650.814	0.242074
654.189	1.0446
657.564	0.616667
660.939	1.11783
664.314	1.49643
667.688	0.603337
671.063	0.528837
674.438	0.499943
677.813	0.625546
681.188	0.894283
684.563	0.439118
687.937	0.779179
691.312	0.424752
694.687	0.937097
698.062	1.37479
701.437	0.696932
704.812	0.227562
708.186	1.02191
711.561	0.704227
714.936	0.567141
718.311	1.08082
721.686	1.087
725.06	0.584592
728.435	0.920699
731.81	0.016105
735.185	0.008441
738.56	0.804291
741.934	0.912282
745.309	0.652413
748.684	0.832544
752.059	0.968225
755.434	0.102584
758.809	0.546675
762.183	0.266705
765.558	0.485781
768.933	0.672536
772.308	0.072227
775.683	0.9396
779.058	0.980999
782.432	0.578255
785.807	0.956571
789.182	0.661227
792.557	0.346486
795.932	0.172108
799.306	0.627989
802.681	1.10188
806.056	0.690743
809.431	0.623988
812.806	0.488556
816.181	0.542725
819.555	0.564747
822.93	0.6661
826.305	0.542525
829.68	0.692249
833.055	0.808145
836.429	0.754342
839.804	0.591538
843.179	1.81115
846.554	0.759541
849.929	0.696417
853.303	1.01246
856.678	0.49962
860.053	1.14379
863.428	0.199848
866.803	1.44173
870.178	0.467536
873.552	0.302555
876.927	1.41539
880.302	1.09517
883.677	0.961047
887.052	0.74809
890.427	0.586006
893.801	0.634314
897.176	1.00065
900.551	0.346901
903.926	0.090494
907.301	0.520494
910.675	0.951236
914.05	0.914215
917.425	0.478491
920.8	1.08229
924.175	0.742898
927.549	0.307201
930.924	0.811009
934.299	1.163
937.674	0.617191
941.049	0.126467
944.423	0.682813
947.798	0.915293
951.173	0.546131
954.548	0.251457
957.923	1.2024
961.298	0.765598
964.672	0.093425
968.047	1.27069
971.422	1.13719
974.797	0.747647
978.172	0.023103
981.546	1.24272
984.921	0.09234
988.296	0.174031
991.671	0.893918
995.046	0.692178
998.42	1.2526
1001.79	0.916438
1005.17	0.779655
1008.54	0.239026
1011.92	0.60756
1015.29	1.2627
1018.67	0.316805
1022.04	0.429224
1025.42	0.665423
1028.79	1.26109
1032.17	0.985694
1035.54	0.753152
1038.92	0.983557
1042.29	0.83918
1045.67	1.88227
1049.04	1.01869
1052.42	1.02288
1055.79	0.831014
1059.17	0.006004
1062.54	0.476429
1065.92	1.37966
1069.29	0.506489
1072.67	0.023119
1076.04	0.716783
1079.42	0.042458
1082.79	0.10059
1086.17	0.729127
1089.54	0.608841
1092.91	0.808295
1096.29	0.444133
1099.66	0.19231
1103.04	0.54056
1106.41	0.796137
1109.79	0.544901
1113.16	0.547572
1116.54	0.207597
1119.91	1.25438
1123.29	1.34068
1126.66	0.08744
1130.04	0.60922
1133.41	0.47877
1136.79	0.480961
1140.16	0.880492
1143.54	1.22616
1146.91	0.655622
1150.29	0.852983
1153.66	0.646441
1157.04	0.508201
1160.41	0.557051
1163.79	0.364361
1167.16	0.78038
1170.54	1.12558
1173.91	0.728395
1177.29	0.619046
1180.66	1.33762
1184.04	0.227813
1187.41	0.335124
1190.79	1.05791
1194.16	0.128298
1197.54	1.01746
1200.91	0.965703
1204.28	0.252526
1207.66	0.293263
1211.03	0.764025
1214.41	1.72436
1217.78	0.509053
1221.16	0.080674
1224.53	0.947445
1227.91	0.690509
1231.28	0.875509
1234.66	1.28916
1238.03	0.670616
1241.41	0.968751
1244.78	0.025164
1248.16	0.884978
1251.53	0.484688
1254.91	1.37132
1258.28	0.885185
1261.66	0.150128
1265.03	0.496075
1268.41	1.13905
1271.78	0.442904
1275.16	0.020172
1278.53	0.738281
1281.9	0.224694
1285.28	0.013817
