Measurement: Raman, 780 nm, unoriented, Raman Data Processed
Mineral: Tugarinovite
Rruff sample: R100218
Ideal chemistry: Mo^4+^O_2_
Locality: Mining concentrate
Source: Mike Carducci, Climax Molybdenum Technology Center
Description: Black unconsolidated powder, representing a mixture with a Mo-oxide.
Raman shift (cm-1)	intensity
174.012	0
176.904	1.6017
179.797	2.22929
182.69	4.94519
185.582	4.16873
188.475	7.26935
191.368	12.073
194.261	7.62849
197.153	9.14695
200.046	8.38505
202.939	3.0334
205.831	0.722914
208.724	4.29764
211.617	4.90323
214.509	2.59333
217.402	4.7358
220.295	9.99958
223.188	5.29976
226.08	3.67735
228.973	4.30751
231.866	4.63781
234.758	1.10852
237.651	4.62913
240.544	3.07409
243.436	4.09354
246.329	0.381216
249.222	2.27829
252.114	1.36607
255.007	0.344263
257.9	0.034046
260.793	1.11415
263.685	3.61342
266.578	0.135538
269.471	5.25945
272.363	4.22541
275.256	3.95878
278.149	5.6778
281.041	5.41157
283.934	1.66106
286.827	0.840597
289.719	3.45914
292.612	1.49669
295.505	3.15795
298.398	1.06253
301.29	3.21772
304.183	0.751278
307.076	6.96461
309.968	3.34405
312.861	3.01018
315.754	1.72962
318.647	1.65563
321.539	5.54641
324.432	7.24024
327.325	5.85055
330.217	11.3546
333.11	14.238
336.003	11.6698
338.895	16.4335
341.788	20.1147
344.681	24.7027
347.574	23.5539
350.466	21.3418
353.359	21.4452
356.252	18.1949
359.144	13.3278
362.037	9.9242
364.93	4.26677
367.822	3.90659
370.715	3.65578
373.608	4.69277
376.5	1.69538
379.393	3.11009
382.286	0.415806
385.179	5.7408
388.071	0.305307
390.964	4.43
393.857	1.512
396.749	0.641623
399.642	1.01993
402.535	1.13584
405.427	1.01181
408.32	4.67629
411.213	1.11274
414.106	1.38911
416.998	1.72833
419.891	0.228253
422.784	4.75007
425.676	3.34932
428.569	3.03959
431.462	1.14549
434.354	0.043685
437.247	3.91378
440.14	5.94189
443.033	3.79387
445.925	4.69458
448.818	3.52523
451.711	5.07649
454.603	7.8961
457.496	8.15877
460.389	3.20587
463.281	4.63683
466.174	2.71225
469.067	1.86919
471.959	3.87953
474.852	2.18
477.745	4.06258
480.638	6.73397
483.53	9.61973
486.423	5.68992
489.316	7.89305
492.208	3.86586
495.101	3.44286
497.994	1.14132
500.887	1.49148
503.779	0.254778
506.672	0.960746
509.565	4.47
512.457	4.59686
515.35	0.804727
518.243	3.17184
521.135	0.675648
524.028	2.0216
526.921	2.08144
529.813	3.04859
532.706	1.76845
535.599	3.13333
538.492	2.71893
541.384	7.24331
544.277	7.40623
547.17	8.71198
550.062	6.85393
552.955	7.31098
555.848	11.0171
558.74	11.3413
561.633	7.69788
564.526	7.98812
567.418	7.18049
570.311	7.46721
573.204	6.1547
576.097	7.82012
578.989	6.77782
581.882	8.1675
584.775	2.40544
587.667	5.15018
590.56	1.69681
593.453	1.46792
596.346	3.36522
599.238	0.772406
602.131	5.1222
605.024	2.31801
607.916	1.39408
610.809	3.26244
613.702	4.02644
616.594	1.60762
619.487	0.991855
622.38	1.63601
625.273	0.300597
628.165	0.874082
631.058	1.53925
633.951	2.98571
636.843	2.52657
639.736	6.06403
642.629	5.58803
645.521	1.6382
648.414	1.38127
651.307	3.89042
654.199	2.21897
657.092	1.69755
659.985	2.30331
662.878	1.10939
665.77	4.60874
668.663	1.53272
671.556	3.77878
674.448	0.215899
677.341	1.53628
680.234	7.98069
683.126	0.724764
686.019	4.00256
688.912	2.37759
691.805	2.12892
694.697	6.11443
697.59	4.38729
700.483	6.97721
703.375	4.50332
706.268	8.80087
709.161	7.66291
712.053	12.3382
714.946	14.6998
717.839	16.8827
720.731	21.5892
723.624	27.0655
726.517	23.9045
729.41	23.9147
732.302	24.3524
735.195	23.1184
738.088	16.5648
740.98	15.565
743.873	7.05445
746.766	10.0269
749.659	9.38881
752.551	5.48836
755.444	3.11636
758.337	4.16275
761.229	4.31466
764.122	1.61034
767.015	2.88753
769.907	2.25392
772.8	1.16419
775.693	6.75122
778.586	3.96015
781.478	3.76999
784.371	2.62829
787.264	1.01567
790.156	0.470581
793.049	2.02402
795.942	1.82434
798.834	9.79723
801.727	3.74445
804.62	4.41545
807.513	4.14343
810.405	9.89675
813.298	6.85984
816.191	6.22325
819.083	9.44928
821.976	7.19041
824.869	3.08795
827.761	2.44286
830.654	5.0801
833.547	1.80123
836.439	2.40114
839.332	5.56548
842.225	4.69304
845.118	2.96961
848.01	5.79651
850.903	3.74954
853.796	1.56478
856.688	1.23119
859.581	1.63069
862.474	1.12832
865.366	3.70068
868.259	1.57247
871.152	1.89592
874.044	1.34514
876.937	5.91584
879.83	3.59658
882.723	2.58904
885.615	3.445
888.508	4.99505
891.401	3.85551
894.293	5.14227
897.186	3.25722
900.079	5.35536
902.971	0.23484
905.864	0.498231
908.757	2.21849
911.65	3.235
914.542	0.995343
917.435	2.75474
920.328	1.36755
923.22	2.66461
926.113	3.27881
929.006	0.63019
931.899	2.08124
934.791	0.28866
937.684	1.37495
940.577	4.24789
943.469	3.41089
946.362	0.955513
949.255	1.20545
952.147	4.865
955.04	2.62652
957.933	2.66812
960.825	3.33145
963.718	2.79889
966.611	3.9735
969.504	5.11658
972.396	3.84501
975.289	0.147542
978.182	3.18842
981.074	6.51426
983.967	4.08057
986.86	5.0743
989.752	3.53894
992.645	7.11898
995.538	2.26451
998.431	0.196393
1001.32	5.47842
1004.22	3.92665
1007.11	2.35553
1010	1.34982
1012.89	5.28177
1015.79	4.25294
1018.68	0.125097
1021.57	4.91567
1024.46	6.08861
1027.36	1.73232
1030.25	3.97149
1033.14	1.76063
1036.04	4.37337
1038.93	5.28223
1041.82	6.98439
1044.71	2.52277
1047.61	3.62977
1050.5	1.35395
1053.39	1.99825
1056.29	1.78378
1059.18	3.21209
1062.07	2.81143
1064.96	6.98175
1067.86	4.86833
1070.75	5.82181
1073.64	2.19286
1076.53	4.91631
1079.43	3.55146
1082.32	3.06652
1085.21	4.79971
1088.1	1.72495
1091	4.51992
1093.89	0.728572
1096.78	6.39222
1099.67	7.47497
1102.57	0.41468
1105.46	2.10572
1108.35	0.138866
1111.25	2.65724
1114.14	2.35548
1117.03	1.16888
1119.92	0.25199
1122.82	4.49141
1125.71	5.93451
1128.6	3.27936
1131.49	0.571046
1134.39	1.59015
1137.28	0.538086
1140.17	0.541008
1143.07	1.08369
1145.96	3.44301
1148.85	5.66193
1151.74	2.77098
1154.64	3.53987
1157.53	3.82887
1160.42	0.888197
1163.31	5.46739
1166.21	2.54765
1169.1	4.66537
1171.99	4.10311
1174.88	6.04845
1177.78	3.22659
1180.67	4.50449
1183.56	3.82357
1186.46	0.988767
1189.35	5.58976
1192.24	2.6231
1195.13	2.38698
1198.03	4.66217
1200.92	1.44337
1203.81	7.09119
1206.7	2.30338
1209.6	2.6205
1212.49	5.52032
1215.38	3.8168
1218.28	5.67027
1221.17	1.94964
1224.06	0.66572
1226.95	4.72202
1229.85	4.42211
1232.74	3.87303
1235.63	3.0226
1238.53	0.939993
1241.42	1.75093
1244.31	3.42325
1247.2	0.794449
1250.1	2.33487
1252.99	3.67104
1255.88	3.97103
1258.77	0.766874
1261.67	4.56353
1264.56	2.55335
1267.45	0.064168
1270.34	3.78608
1273.24	5.96237
1276.13	5.23376
1279.02	3.56863
1281.91	4.96344
1284.81	0
