Measurement: Raman, 780 nm, unoriented, Raman Data Processed
Mineral: Tumchaite
Rruff sample: R070047
Ideal chemistry: Na_2_Zr^4+^Si_4_O_11_2H_2_O
Locality: Vuoriyarvi Massif, Murmansk region, Russia
Source: Michael Scott
Description: Fragment of a colorless vitreous crystal, co-type material. Associated with minor calcite
Raman shift (cm-1)	intensity
102.672	0
105.565	28.8169
108.457	1.54981
111.35	11.3403
114.243	29.1499
117.135	49.5693
120.028	121.107
122.921	192.883
125.814	235.285
128.706	306.136
131.599	330.212
134.492	278.923
137.384	217.982
140.277	152.404
143.17	127.594
146.062	135.559
148.955	140.404
151.848	122.847
154.741	54.0513
157.633	19.3428
160.526	12.6553
163.419	8.5376
166.311	17.0825
169.204	33.102
172.097	57.5825
174.989	93.0698
177.882	134.017
180.775	163.276
183.667	191.946
186.56	231.974
189.453	248.397
192.346	240.852
195.238	231.852
198.131	196.19
201.024	167.306
203.916	145.914
206.809	120.079
209.702	99.4316
212.595	78.1846
215.487	83.3623
218.38	66.1118
221.273	59.8667
224.165	20.6392
227.058	19.1196
229.951	3.1206
232.843	1.57617
235.736	8.14795
238.629	7.70557
241.522	12.6914
244.414	18.9775
247.307	19.0088
250.2	14.7673
253.092	16.8311
255.985	33.2419
258.878	43.991
261.77	66.3042
264.663	74.4368
267.556	91.5867
270.449	133.946
273.341	158.221
276.234	205.213
279.127	245.502
282.019	274.929
284.912	313.069
287.805	328.874
290.697	319.204
293.59	287.607
296.483	229.476
299.375	209.201
302.268	164.402
305.161	144.756
308.054	111.147
310.946	114.463
313.839	97.2956
316.732	102.906
319.624	92.7388
322.517	106.638
325.41	88.5691
328.302	101.912
331.195	101.773
334.088	86.8071
336.981	69.2708
339.873	65.7978
342.766	47.0864
345.659	35.4795
348.551	27.0566
351.444	10.0674
354.337	2.96631
357.229	8.01855
360.122	2.02783
363.015	21.0308
365.908	3.24829
368.8	14.6218
371.693	1.60669
374.586	1.30103
377.478	11.594
380.371	7.85083
383.264	26.1052
386.156	17.3242
389.049	20.614
391.942	30.6746
394.834	40.6562
397.727	48.1292
400.62	62.5723
403.513	58.6585
406.405	54.3748
409.298	60.6025
412.191	55.3584
415.083	78.8711
417.976	78.157
420.869	97.7839
423.762	92.0156
426.654	87.0178
429.547	80.9236
432.44	73.0523
435.332	73.3877
438.225	76.1585
441.118	51.2036
444.01	63.6904
446.903	58.1658
449.796	55.6143
452.688	66.2527
455.581	62.2832
458.474	53.3325
461.366	71.8154
464.259	77.6057
467.152	73.5041
470.045	84.6953
472.937	86.0347
475.83	88.011
478.723	94.1904
481.615	92.6689
484.508	102.253
487.401	113.035
490.293	132.225
493.186	131.944
496.079	151.351
498.972	144.455
501.864	113.867
504.757	89.6035
507.65	85.7009
510.542	76.0674
513.435	76.4678
516.328	102.913
519.221	95.634
522.113	116.811
525.006	149.544
527.899	180.967
530.791	191.923
533.684	193.627
536.577	213.411
539.469	184.14
542.362	166.327
545.255	111.58
548.148	75.6875
551.04	39.3203
553.933	30.634
556.826	13.3074
559.718	2.13623
562.611	0.433105
565.504	9.92261
568.396	6.90234
571.289	6.08716
574.182	0.831299
577.074	1.47436
579.967	1.52856
582.86	6.02319
585.753	17.102
588.645	2.99438
591.538	15.5171
594.431	30.4793
597.323	19.5498
600.216	32.8206
603.109	60.0527
606.001	84.2625
608.894	107.044
611.787	139.637
614.68	169.035
617.572	212.162
620.465	231.062
623.358	252.152
626.25	248.227
629.143	234.215
632.036	180.852
634.928	140.029
637.821	92.5327
640.714	71.8203
643.606	52.8645
646.499	52.4109
649.392	43.3313
652.285	34.251
655.177	26.9048
658.07	21.2231
660.963	25.3989
663.855	6.58691
666.748	4.25439
669.641	15.9812
672.534	15.7769
675.426	12.2827
678.319	3.99292
681.212	15.0068
684.104	1.61133
686.997	8.72315
689.89	9.99634
692.782	13.8626
695.675	11.7441
698.568	19.946
701.461	23.3401
704.353	21.6738
707.246	18.5408
710.139	19.6958
713.031	38.0588
715.924	19.7361
718.817	9.1416
721.709	13.0305
724.602	21.9082
727.495	1.05737
730.388	10.563
733.28	6.97046
736.173	9.5581
739.066	14.593
741.958	7.94507
744.851	15.0308
747.744	10.637
750.636	12.4858
753.529	8.83105
756.422	3.32446
759.314	5.58252
762.207	7.95752
765.1	8.47998
767.993	2.01123
770.885	5.49902
773.778	8.23584
776.671	12.9766
779.563	13.417
782.456	9.01196
785.349	16.2822
788.241	27.5283
791.134	32.5974
794.027	31.9067
796.919	38.0762
799.812	47.6006
802.705	30.0207
805.598	19.2153
808.49	32.0337
811.383	19.0823
814.276	19.2363
817.168	20.8938
820.061	5.49951
822.954	1.82275
825.846	9.14551
828.739	1.3313
831.632	12.74
834.525	3.80273
837.417	13.9675
840.31	8.75732
843.203	6.06787
846.095	4.03076
848.988	3.20166
851.881	5.07837
854.774	13.6074
857.666	0.323975
860.559	3.59448
863.452	11.9409
866.344	8.89062
869.237	4.09033
872.13	0.440264
875.022	0.321289
877.915	2.29346
880.808	5.47949
883.7	13.5212
886.593	18.2258
889.486	23.0732
892.379	35.6948
895.271	47.3755
898.164	64.1108
901.057	82.2456
903.949	98.8389
906.842	108.35
909.735	108.237
912.627	94.3933
915.52	68.5815
918.413	57.5742
921.306	52.3577
924.198	41.0754
927.091	71.1223
929.984	73.0325
932.876	93.5596
935.769	107.243
938.662	154.682
941.554	162.563
944.447	181.123
947.34	202.769
950.232	195.527
953.125	161.342
956.018	137.389
958.911	105.014
961.803	79.9314
964.696	53.2944
967.589	50.2173
970.481	43.9492
973.374	41.981
976.267	25.7778
979.159	33.9102
982.052	26.8462
984.945	16.3064
987.838	20.4299
990.73	6.01562
993.623	11.5159
996.516	2.59717
999.408	0.723145
1002.3	3.47095
1005.19	6.79272
1008.09	7.77881
1010.98	8.87965
1013.87	4.28052
1016.76	8.2019
1019.66	16.4226
1022.55	15.561
1025.44	7.13574
1028.34	14.2942
1031.23	20.6809
1034.12	14.2554
1037.01	31.3672
1039.91	35.8118
1042.8	39.1931
1045.69	28.2893
1048.58	37.0044
1051.48	39.8474
1054.37	43.9477
1057.26	36.4043
1060.15	47.9128
1063.05	32.9177
1065.94	33.5647
1068.83	31.3899
1071.73	50.4128
1074.62	41.7229
1077.51	36.7925
1080.4	24.7454
1083.3	28.8225
1086.19	19.602
1089.08	25.0005
1091.97	7.02441
1094.87	14.4949
1097.76	2.63696
1100.65	8.00684
1103.55	3.77759
1106.44	1.18506
1109.33	14.124
1112.22	8.72681
1115.12	7.61231
1118.01	8.27637
1120.9	19.804
1123.79	0.016846
