Measurement: Raman, 514 nm, unoriented, Raman Data Processed
Mineral: Tungstite
Rruff sample: R050452
Ideal chemistry: WO_3_H_2_O
Locality: Sinaloa (near shared border with Chihuahua and Durango), Mexico
Source: University of Arizona Mineral Museum
Description: Yellow massive
Measured chemistry: (W_0.95_Fe^3+^_0.05_)_Σ=1_(O_2.85_(OH)_0.15_)_Σ=3_·H_2_O; H_2_O estimated by difference; (OH) by charge balance
Raman shift (cm-1)	intensity
111.393	0
114.182	566.529
116.97	1736.49
119.757	2853.86
122.543	3703.52
125.328	4425.85
128.112	5285.91
130.896	5220.4
133.678	4489.02
136.46	3688.15
139.24	2278.65
142.02	1307.37
144.799	813.186
147.577	342.762
150.354	62.271
153.13	24.08
155.905	250.338
158.679	31.559
161.452	109.889
164.225	85.445
166.996	51.621
169.767	271.01
172.536	532.357
175.305	695.275
178.073	737.482
180.839	715.742
183.605	663.842
186.37	733.923
189.134	815.207
191.898	926.703
194.66	928.237
197.421	1089.69
200.182	1111.56
202.941	1323.83
205.7	1366.92
208.457	1761.05
211.214	2069.88
213.97	2384.37
216.725	2533.58
219.479	2713.37
222.232	2963.64
224.984	3323.95
227.736	3524.05
230.486	4033.49
233.236	4382.27
235.984	4499.93
238.732	4876.31
241.479	5244.27
244.224	5796.1
246.969	6743.4
249.713	7531.21
252.457	8270.99
255.199	8402.41
257.94	8512.87
260.681	7970.75
263.42	7357.95
266.159	6917.74
268.896	6025.74
271.633	5426.89
274.369	4746.57
277.104	4505.05
279.838	4585.33
282.572	4461.02
285.304	4429.93
288.035	4276.01
290.766	3978.6
293.495	3840.47
296.224	4121.27
298.952	4052.61
301.679	4106.92
304.405	3840.79
307.13	3773.21
309.854	3672.75
312.578	3526.51
315.3	3870.16
318.021	3927.44
320.742	3928.6
323.462	3756.91
326.181	3601.69
328.899	3533.43
331.616	3278.48
334.332	3050.4
337.047	2552.93
339.762	2224.31
342.475	2051.46
345.188	1854.84
347.9	1791.73
350.61	1691.79
353.32	1570.44
356.029	1511.09
358.738	1238.19
361.445	1307.54
364.151	1228.29
366.857	1171.83
369.561	1008.26
372.265	632.482
374.968	777.887
377.67	613.462
380.371	706.949
383.071	689.352
385.77	539.869
388.469	591.17
391.166	506.54
393.863	443.112
396.559	430.73
399.254	489.101
401.948	465.233
404.641	336.098
407.333	418.618
410.025	516.811
412.715	508.679
415.405	586.188
418.093	353.347
420.781	569.119
423.468	606.487
426.154	488.595
428.839	554.432
431.524	540.056
434.207	412.498
436.89	335.717
439.572	178.684
442.252	320.396
444.932	355.823
447.611	131.886
450.29	115.513
452.967	82.827
455.644	98.77
458.319	145.715
460.994	187.076
463.668	1.615
466.341	134.971
469.013	187.138
471.684	149.206
474.354	215.143
477.024	218.036
479.692	264.886
482.36	170.562
485.027	169.871
487.693	96.795
490.358	68.351
493.023	76.503
495.686	103.097
498.349	218.039
501.01	109.371
503.671	65.979
506.331	127.799
508.99	207.81
511.648	146.053
514.306	9.388
516.962	1.291
519.618	14.019
522.273	32.193
524.927	137.302
527.58	187.057
530.232	21.554
532.883	32.424
535.534	79.281
538.183	37.675
540.832	50.13
543.48	57.801
546.127	171.034
548.773	304.202
551.418	113.014
554.063	179.457
556.706	281.063
559.349	340.438
561.991	591.489
564.632	565.12
567.272	408.807
569.911	621.491
572.55	621.704
575.187	693.836
577.824	749.401
580.46	829.358
583.095	919.631
585.729	988.456
588.363	1123.52
590.995	1189.68
593.627	1365.57
596.258	1215.87
598.888	1382.48
601.517	1623.23
604.145	1798.02
606.772	1672.65
609.399	1897.73
612.024	1975.55
614.649	2106.38
617.273	2162.78
619.896	2230.85
622.519	2347.29
625.14	2414.43
627.761	2758.03
630.38	2900.02
632.999	3001.08
635.617	2905.99
638.235	3083.89
640.851	3503.63
643.466	3487.47
646.081	3634.56
648.695	3688.73
651.308	3970.11
653.92	4283.1
656.531	4499.58
659.142	4690.89
661.752	4678.67
664.36	5319.83
666.968	5482.66
669.575	5880.84
672.182	6413.4
674.787	6095.97
677.392	6361.45
679.995	7132.97
682.598	7519.77
685.2	7735.46
687.802	7806.62
690.402	8172.67
693.002	8765.72
695.6	8890.61
698.198	9006.14
700.795	9033.23
703.391	9011.13
705.987	9369.9
708.581	8919.52
711.175	8840.03
713.768	8021.45
716.36	7793.81
718.951	7867.11
721.542	7351.47
724.131	7026.92
726.72	6503.46
729.308	6231.15
731.895	6690.03
734.481	6190.04
737.067	6401.25
739.651	6313.73
742.235	6277.48
744.818	6252.59
747.4	6449.03
749.981	6696.8
752.562	6945.59
755.141	7126.63
757.72	7418.71
760.298	7842.1
762.875	8427.39
765.451	8963.92
768.027	10121.8
770.601	10481.2
773.175	11132
775.748	11514
778.32	12026.4
780.892	12862.7
783.462	13639.4
786.032	14467.8
788.601	14657.8
791.169	15349.5
793.736	16042.8
796.303	16637.7
798.868	16704.2
801.433	16582.1
803.997	16351.5
806.56	15822.4
809.122	15554.6
811.684	14688.1
814.245	13892.9
816.804	12719
819.363	11836.2
821.922	10714.7
824.479	9864.44
827.036	8825.3
829.592	8087.28
832.147	7560.35
834.701	6574.53
837.254	5689.76
839.807	5176.05
842.358	4673.37
844.909	4411.75
847.459	3911.3
850.008	3401.42
852.557	2932.71
855.105	2564.95
857.651	2258.11
860.197	1832.2
862.743	1637.19
865.287	1523.08
867.831	1239.85
870.373	1027.49
872.915	719.479
875.457	635.261
877.997	589.65
880.536	443.766
883.075	341.165
885.613	940.757
888.15	604.117
890.687	470.724
893.222	455.591
895.757	422.264
898.291	602.205
900.824	712.55
903.356	848.129
905.888	641.539
908.418	852.553
910.948	1202.86
913.477	1308.37
916.005	1373.86
918.533	1329.75
921.06	1782.29
923.585	1936.31
926.111	2088.64
928.635	2063.26
931.158	2361.51
933.681	2662.22
936.203	2768.33
938.724	2707.59
941.244	2825.26
943.764	3154.61
946.282	3131.22
948.8	2959.01
951.317	3025.9
953.833	3160.86
956.349	3475.58
958.864	3330.18
961.377	3114.47
963.891	3216.51
966.403	3147.13
968.914	3167.33
971.425	2947.79
973.935	2734.12
976.444	2785.36
978.952	2754.88
981.46	2756.46
983.967	2261.5
986.473	2138.27
988.978	1989.77
991.482	1668.21
993.986	1512.85
996.488	1329.53
998.99	1183.95
1001.49	934.345
1003.99	803.001
1006.49	592.667
1008.99	500.067
1011.49	431.092
1013.99	275.964
1016.48	112.813
1018.98	58.479
1021.47	132.396
1023.97	164.917
1026.46	219.13
1028.95	228.867
1031.44	116.246
1033.93	276.276
1036.42	210.384
1038.91	281.565
1041.4	232.348
1043.89	203.84
1046.38	330.445
1048.86	256.775
1051.35	218.051
1053.84	211.382
1056.32	187.662
1058.8	256.234
1061.28	132.166
1063.77	22.931
1066.25	139.796
1068.73	136.88
1071.2	37.983
