Measurement: Raman, 780 nm, unoriented, Raman Data Processed
Mineral: Tungstite
Rruff sample: R050452
Ideal chemistry: WO_3_H_2_O
Locality: Sinaloa (near shared border with Chihuahua and Durango), Mexico
Source: University of Arizona Mineral Museum
Description: Yellow massive
Measured chemistry: (W_0.95_Fe^3+^_0.05_)_Σ=1_(O_2.85_(OH)_0.15_)_Σ=3_·H_2_O; H_2_O estimated by difference; (OH) by charge balance
Raman shift (cm-1)	intensity
159.833	0
162.726	1.02954
165.619	3.99585
168.511	36.5903
171.404	121.869
174.297	230.589
177.189	327.924
180.082	440.289
182.975	569.865
185.868	656.76
188.76	754.671
191.653	810.746
194.546	880.902
197.438	929.38
200.331	997.032
203.224	1061.68
206.117	1143.27
209.009	1236.78
211.902	1341.79
214.795	1420.23
217.687	1505.02
220.58	1604.32
223.473	1690.06
226.365	1771.56
229.258	1846.01
232.151	1857.48
235.043	1859.68
237.936	1816.6
240.829	1788.79
243.722	1718.9
246.614	1634.89
249.507	1523.36
252.4	1372.24
255.292	1222.1
258.185	1054.62
261.078	903.41
263.971	773.664
266.863	661.194
269.756	552.998
272.649	464.05
275.541	386.315
278.434	339.727
281.327	284.785
284.219	249.38
287.112	212.418
290.005	176.468
292.897	172.995
295.79	143.007
298.683	122.917
301.576	111.083
304.468	57.4619
307.361	10.3601
310.254	10.6025
313.147	47.0793
316.039	38.7627
318.932	39.1799
321.825	34.2764
324.717	1.06299
327.61	35.5857
330.503	88.6558
333.395	101.364
336.288	94.6626
339.181	132.38
342.074	205.179
344.966	293.072
347.859	392.498
350.752	520.831
353.644	642.201
356.537	750.528
359.43	842.39
362.322	899.513
365.215	903.028
368.108	844.914
371	769.871
373.893	681.98
376.786	604.307
379.679	560.533
382.571	517.205
385.464	487.558
388.357	467.058
391.249	448.888
394.142	413.761
397.035	376.126
399.928	327.303
402.82	262.094
405.713	176.523
408.606	130.389
411.498	73.7969
414.391	51.0339
417.284	19.3733
420.176	9.75513
423.069	10.3135
425.962	12.8833
428.854	25.2688
431.747	15.0562
434.64	14.6401
437.533	17.2979
440.425	9.26538
443.318	11.333
446.211	39.1589
449.103	62.1433
451.996	73.3406
454.889	123.527
457.781	157.612
460.674	186.743
463.567	219.504
466.46	255.344
469.352	290.184
472.245	322.791
475.138	354.779
478.031	377.623
480.923	394.847
483.816	414.987
486.709	438.643
489.601	439.583
492.494	458.101
495.387	482.408
498.279	498.27
501.172	521.45
504.065	536.427
506.957	549.006
509.85	560.335
512.743	590.018
515.636	583.92
518.528	579.366
521.421	576.011
524.314	570.949
527.206	565.307
530.099	550.997
532.992	548.774
535.885	552.863
538.777	563.174
541.67	588.241
544.563	601.235
547.455	627.463
550.348	632.868
553.241	630.2
556.133	633.565
559.026	607.561
561.919	552.287
564.812	483.848
567.704	412.985
570.597	356.282
573.49	294.07
576.382	245.542
579.275	203.367
582.168	165.672
585.06	136.111
587.953	106.893
590.846	86.657
593.739	67.7147
596.631	37.8599
599.524	23.9148
602.417	13.0221
605.309	1.36743
608.202	8.85877
611.095	18.0298
613.987	13.468
616.88	13.2087
619.773	13.5883
622.665	17.6826
625.558	6.53888
628.451	5.80646
631.344	1.93738
634.236	6.65637
637.129	18.7101
640.022	20.3804
642.914	27.1237
645.807	28.032
648.7	24.866
651.593	24.0344
654.485	29.7885
657.378	27.0673
660.271	25.1603
663.163	26.9248
666.056	28.345
668.949	29.6058
671.841	19.6642
674.734	20.1564
677.627	4.56799
680.52	2.37537
683.412	5.05231
686.305	5.05231
689.198	1.05646
692.09	10.3221
694.983	1.53491
697.876	0.927246
700.769	8.73407
703.661	22.1211
706.554	29.3727
709.447	32.8906
712.339	44.8255
715.232	51.9363
718.125	72.1339
721.017	74.2833
723.91	84.644
726.803	96.4102
729.696	108.846
732.588	118.293
735.481	126.312
738.374	142.785
741.266	159.101
744.159	169.866
747.052	192.254
749.944	198.88
752.837	222.642
755.73	233.866
758.623	234.418
761.515	245.792
764.408	253.444
767.301	262.784
770.193	269.261
773.086	258.369
775.979	249.161
778.871	241.746
781.764	241.827
784.657	241.661
787.55	243.221
790.442	243.051
793.335	247.72
796.228	244.676
799.12	223.966
802.013	199.519
804.906	195.959
807.798	190.518
810.691	191.502
813.584	184.292
816.477	181.576
819.369	192.546
822.262	192.005
825.155	176.887
828.047	170.302
830.94	155.795
833.833	145.061
836.726	116.219
839.618	87.7092
842.511	58.6049
845.404	42.7251
848.296	26.9739
851.189	16.6755
854.082	13.3105
856.974	8.17633
859.867	0.677704
862.76	1.57904
865.653	10.2579
868.545	8.2421
871.438	8.23761
874.331	11.3119
877.223	4.62726
880.116	3.36084
883.009	0.041382
885.901	10.1103
888.794	17.6467
891.687	33.4856
894.58	62.4093
897.472	101.026
900.365	146.262
903.258	192.19
906.15	251.178
909.043	305.297
911.936	297.859
914.828	206.596
917.721	144.105
920.614	120.932
923.506	117.874
926.399	117.849
929.292	131.396
932.185	140.661
935.077	147.922
937.97	165.078
940.863	193.079
943.755	205.469
946.648	220.533
949.541	228.254
952.434	241.33
955.326	247.032
958.219	258.509
961.112	252.605
964.004	248.328
966.897	238.594
969.79	218.064
972.683	195.464
975.575	178.465
978.468	156.716
981.361	135.348
984.253	111.275
987.146	91.8913
990.039	75.4426
992.931	59.4434
995.824	49.5341
998.717	41.1205
1001.61	31.6433
1004.5	24.4213
1007.39	16.943
1010.29	13.3645
1013.18	8.25717
1016.07	5.80365
1018.97	2.77531
1021.86	3.37303
1024.75	3.39299
1027.64	5.1414
1030.54	5.03066
1033.43	3.16057
1036.32	7.37048
1039.21	1.79327
1042.11	3.49968
1045	0.376999
1047.89	0.603455
1050.79	0.070816
1053.68	2.71211
1056.57	8.32385
1059.46	9.51192
1062.36	12.9551
1065.25	15.6495
1068.14	15.141
1071.03	17.4174
1073.93	21.2038
1076.82	19.4536
1079.71	23.6612
1082.61	22.6558
1085.5	21.2831
1088.39	20.991
1091.28	21.9179
1094.18	20.2508
1097.07	19.1973
1099.96	21.925
1102.85	25.1432
1105.75	22.8521
1108.64	26.9916
1111.53	27.6789
1114.42	29.2754
1117.32	29.9426
1120.21	31.8514
1123.1	35.3771
1126	38.6855
1128.89	43.2114
1131.78	49.4735
1134.67	52.8214
1137.57	57.9123
1140.46	64.735
1143.35	70.5703
1146.24	76.8758
1149.14	84.0903
1152.03	88.0564
1154.92	90.2005
1157.82	102.378
1160.71	99.691
1163.6	107.21
1166.49	109.221
1169.39	120.752
1172.28	127.599
1175.17	145.579
1178.06	147.744
1180.96	153.139
1183.85	153.565
1186.74	149.688
1189.63	153.705
1192.53	145.7
1195.42	144.404
1198.31	138.267
1201.21	136.493
1204.1	125.285
1206.99	121.218
1209.88	106.987
1212.78	99.5915
1215.67	82.5161
1218.56	66.558
1221.45	47.0694
1224.35	26.4485
1227.24	9.00232
1230.13	21.3527
1233.03	14.9374
1235.92	8.90289
1238.81	16.7289
1241.7	29.1339
1244.6	45.3494
1247.49	69.499
1250.38	67.1282
1253.28	76.0674
1256.17	76.8156
1259.06	62.6656
1261.95	23.4344
1264.85	27.2522
1267.74	25.0771
1270.63	30.4474
1273.52	20.0324
1276.42	6.10815
1279.31	16.7595
1282.2	7.55542
1285.09	5.18335
