Measurement: Raman, 532 nm, unoriented, Raman Data Processed
Mineral: Tungstite
Rruff sample: R050452
Ideal chemistry: WO_3_H_2_O
Locality: Sinaloa (near shared border with Chihuahua and Durango), Mexico
Source: University of Arizona Mineral Museum
Description: Yellow massive
Measured chemistry: (W_0.95_Fe^3+^_0.05_)_Σ=1_(O_2.85_(OH)_0.15_)_Σ=3_·H_2_O; H_2_O estimated by difference; (OH) by charge balance
Raman shift (cm-1)	intensity
160.915	0
163.807	24.6855
166.7	34.654
169.593	25.3379
172.486	54.6457
175.378	34.9216
178.271	15.3423
181.164	16.6414
184.056	0.500488
186.949	10.5776
189.842	20.6204
192.734	16.4334
195.627	13.4175
198.52	8.97656
201.412	2.01294
204.305	7.77734
207.198	23.1201
210.091	40.6504
212.983	39.9475
215.876	79.7212
218.769	116.783
221.661	148.577
224.554	180.672
227.447	222.555
230.339	238.695
233.232	245.833
236.125	277.084
239.018	276.447
241.91	276.879
244.803	259.422
247.696	261.171
250.588	239.794
253.481	228.705
256.374	238.781
259.267	221.363
262.159	211.654
265.052	182.815
267.945	178.751
270.837	149.763
273.73	131.614
276.623	116.982
279.515	99.3914
282.408	88.2864
285.301	67.5034
288.193	53.5227
291.086	58.781
293.979	48.0349
296.872	24.7583
299.764	26.5603
302.657	22.7998
305.55	23.9077
308.442	41.6045
311.335	49.8118
314.228	45.7546
317.12	61.3562
320.013	94.7505
322.906	119.692
325.799	165.4
328.691	210.176
331.584	243.391
334.477	214.15
337.369	164.596
340.262	117.466
343.155	99.2585
346.048	88.6035
348.94	81.2639
351.833	110.311
354.726	143.798
357.618	187.323
360.511	236.733
363.404	288.207
366.296	346.601
369.189	411.169
372.082	449.042
374.974	443.352
377.867	367.319
380.76	281.731
383.653	214.13
386.545	211.152
389.438	194.275
392.331	190.592
395.223	139.285
398.116	107.216
401.009	53.1493
403.901	9.15015
406.794	29.4431
409.687	48.7531
412.58	23.788
415.472	5.69336
418.365	29.5065
421.258	65.2927
424.15	120.202
427.043	162.585
429.936	236.815
432.829	306.521
435.721	377.593
438.614	368.051
441.507	315.408
444.399	262.187
447.292	230.076
450.185	240.274
453.077	254.689
455.97	226.711
458.863	206.316
461.755	192.621
464.648	140.821
467.541	102.553
470.434	57.3261
473.326	28.8041
476.219	29.7212
479.112	34.5702
482.004	32.7893
484.897	37.6842
487.79	42.483
490.683	52.7458
493.575	59.2896
496.468	79.7313
499.361	93.7842
502.253	120.663
505.146	140.07
508.039	160.528
510.931	177.3
513.824	202.121
516.717	214.694
519.61	237.201
522.502	251.667
525.395	270.152
528.288	280.255
531.18	294.603
534.073	298.996
536.966	294.868
539.859	300.607
542.751	299.026
545.644	295.847
548.537	286.902
551.429	267.003
554.322	236.394
557.215	214.08
560.107	193.815
563	165.318
565.893	157.999
568.785	133.023
571.678	123.025
574.571	100.29
577.464	90.3789
580.356	69.6937
583.249	68.481
586.142	50.2607
589.034	32.4474
591.927	27.0348
594.82	5.39539
597.712	7.36853
600.605	9.69226
603.498	16.8954
606.39	3.23645
609.283	19.1982
612.176	43.5022
615.069	75.1411
617.961	100.39
620.854	130.542
623.747	157.423
626.639	171.332
629.532	199.731
632.425	211.16
635.317	201.593
638.21	198.368
641.103	174.184
643.996	142.798
646.888	127.639
649.781	102.617
652.674	84.9248
655.566	74.9426
658.459	44.394
661.352	13.5769
664.245	15.1226
667.137	32.626
670.03	55.1904
672.923	44.738
675.815	40.6692
678.708	15.4194
681.601	15.6895
684.493	49.5046
687.386	100.658
690.279	168.696
693.172	246.211
696.064	321.489
698.957	395.529
701.85	433.669
704.742	412.742
707.635	415.717
710.528	391.6
713.42	382.507
716.313	375.531
719.206	382.434
722.098	384.96
724.991	409.309
727.884	382.689
730.777	408.114
733.669	395.799
736.562	416.981
739.455	424.909
742.347	489.416
745.24	518.355
748.133	566.253
751.025	644.146
753.918	721.146
756.811	806.079
759.704	890.386
762.596	960.832
765.489	1028.46
768.382	1106.27
771.274	1160.8
774.167	1243.68
777.06	1273.49
779.952	1309.69
782.845	1335.87
785.738	1346.62
788.631	1336.04
791.523	1342.5
794.416	1357.95
797.309	1315.13
800.201	1268.94
803.094	1223.03
805.987	1214.48
808.88	1176.14
811.772	1128.99
814.665	1059.3
817.558	989.435
820.45	878.057
823.343	765.129
826.236	645.468
829.128	524.668
832.021	439.056
834.914	328.826
837.807	267.595
840.699	181.203
843.592	107.001
846.485	41.7339
849.377	0.69043
852.27	29.7737
855.163	40.3953
858.055	43.937
860.948	52.9459
863.841	47.1082
866.734	42.74
869.626	22.4492
872.519	9.61389
875.412	21.3413
878.304	43.738
881.197	80.2533
884.09	122.819
886.982	162.742
889.875	214.592
892.768	271.955
895.66	345.271
898.553	433.435
901.446	561.67
904.339	686.826
907.231	877.966
910.124	1004.07
913.017	972.323
915.909	866.779
918.802	838.085
921.695	868.339
924.587	927.277
927.48	1003.28
930.373	1147.09
933.266	1313.37
936.158	1535.65
939.051	1809.82
941.944	2095.96
944.836	2243.1
947.729	2195.8
950.622	2091.89
953.514	2068.17
956.407	2074.58
959.3	2073.27
962.193	2057.62
965.085	1983.1
967.978	1866.33
970.871	1724.42
973.763	1556.52
976.656	1421.03
979.549	1256.33
982.442	1088.41
985.334	918.438
988.227	753.059
991.12	619.765
994.012	500.86
996.905	417.284
999.798	321.155
1002.69	259.876
1005.58	202.461
1008.48	142.756
1011.37	99.2039
1014.26	68.4855
1017.15	40.6097
1020.05	19.7307
1022.94	3.79755
1025.83	2.60901
1028.72	16.7525
1031.62	20.3414
1034.51	20.0998
1037.4	14.6595
1040.3	13.615
1043.19	8.43957
1046.08	5.95572
1048.97	5.22144
1051.87	8.76068
1054.76	14.786
1057.65	24.2541
1060.54	31.5095
1063.44	40.4402
1066.33	50.7806
1069.22	55.8844
1072.12	62.2936
1075.01	67.5347
1077.9	76.829
1080.79	78.4888
1083.69	82.1758
1086.58	80.8851
1089.47	77.0626
1092.36	69.4428
1095.26	65.2118
1098.15	58.8315
1101.04	53.8957
1103.93	48.4665
1106.83	42.3649
1109.72	42.5659
1112.61	46.3727
1115.51	38.0001
1118.4	37.8359
1121.29	36.1103
1124.18	35.6347
1127.08	31.4624
1129.97	28.4954
1132.86	30.7801
1135.76	28.448
1138.65	24.9783
1141.54	23.2434
1144.43	21.6659
1147.33	18.4117
1150.22	16.1824
1153.11	16.1647
1156	15.6981
1158.9	13.6413
1161.79	14.6249
1164.68	8.8931
1167.57	5.53563
1170.47	10.6253
1173.36	3.28468
1176.25	1.69911
1179.14	1.634
1182.04	4.16415
1184.93	1.17348
1187.82	3.80052
1190.72	1.61836
1193.61	3.08011
1196.5	0.662857
1199.39	1.0703
1202.29	1.64221
1205.18	0.535889
1208.07	2.79582
1210.96	4.10998
1213.86	3.0919
1216.75	3.08272
1219.64	1.84587
1222.54	1.79477
1225.43	0.94902
1228.32	5.11307
1231.21	2.67729
1234.11	0.717606
1237	1.32872
1239.89	0.842026
1242.79	1.8089
1245.68	0.989731
1248.57	1.71828
1251.46	3.8165
1254.36	1.00009
1257.25	0.581696
1260.14	0.024826
1263.03	0.108902
1265.93	1.1942
1268.82	1.09326
1271.71	3.05344
1274.6	4.70555
1277.5	2.54195
1280.39	3.72275
1283.28	0.042862
1286.17	0
