Measurement: Raman, 532 nm, unoriented, Raman Data Processed
Mineral: Tuperssuatsiaite
Rruff sample: R050223
Ideal chemistry: Na_2_(Fe^3+^,Mn^2+^)_3_Si_8_O_20_(OH)_2_4H_2_O
Locality: Aris phonolite, Windhoek, Namibia
Source: Marcus Origlieri
Description: Group of reddish brown radiating acicular crystals
Raman shift (cm-1)	intensity
127.619	0
130.029	21.082
132.44	25.657
134.851	13.598
137.261	26.501
139.672	35.815
142.082	10.875
144.493	4.047
146.904	11.999
149.314	13.405
151.725	11.577
154.135	12.757
156.546	24.281
158.956	31.077
161.367	21.271
163.778	40.693
166.188	34.185
168.599	33.847
171.009	37.156
173.42	25.612
175.831	29.37
178.241	34.937
180.652	40.009
183.062	48.223
185.473	50.549
187.883	41.742
190.294	43.411
192.705	54.272
195.115	56.171
197.526	54.149
199.936	53.41
202.347	60.844
204.758	55.272
207.168	55.687
209.579	59.129
211.989	57.093
214.4	67.037
216.81	45.888
219.221	41.468
221.632	43.002
224.042	26.121
226.453	35.29
228.863	17.415
231.274	19.515
233.684	24.133
236.095	19.299
238.506	17.746
240.916	6.48
243.327	10.492
245.738	2.133
248.148	0.105
250.559	9.398
252.969	0.776
255.38	6.093
257.79	10.193
260.201	15.45
262.612	13.692
265.022	18.193
267.433	17.919
269.843	13.666
272.254	13.716
274.664	14.396
277.075	14.791
279.486	14.982
281.896	8.753
284.307	11.935
286.717	5.608
289.128	9.005
291.539	6.281
293.949	7.175
296.36	12.89
298.77	1.931
301.181	0.951
303.591	28.796
306.002	18.534
308.413	18.547
310.823	15.279
313.234	27.981
315.644	16.988
318.055	15.727
320.466	11.417
322.876	13.355
325.287	6.229
327.697	17.27
330.108	7.635
332.518	25.016
334.929	2.214
337.34	9.649
339.75	4.336
342.161	3.599
344.571	4.368
346.982	4.587
349.393	14.946
351.803	11.241
354.214	2.734
356.624	14.823
359.035	15.909
361.445	2.154
363.856	8.93
366.267	3.055
368.677	23.582
371.088	21.738
373.499	7.942
375.909	23.773
378.32	11.786
380.73	18.592
383.141	30.766
385.551	23.139
387.962	22.048
390.373	21.744
392.783	12.592
395.194	14.007
397.604	13.737
400.015	5.385
402.426	16.034
404.836	6.412
407.247	1.432
409.657	2.356
412.068	5.816
414.478	7.257
416.889	4.026
419.3	2.923
421.71	2.767
424.121	14.773
426.531	25.477
428.942	11.602
431.353	14.264
433.763	25.948
436.174	19.667
438.584	21.573
440.995	11.612
443.405	12.842
445.816	13.074
448.227	4.922
450.637	10.274
453.048	2.874
455.458	14.365
457.869	9.779
460.28	18.804
462.69	19.326
465.101	31.929
467.511	27.758
469.922	41.418
472.332	50.634
474.743	50.925
477.154	38.754
479.564	36.576
481.975	35.885
484.385	50.793
486.796	44.908
489.207	29.246
491.617	32.103
494.028	30.867
496.438	27.284
498.849	25.152
501.259	20.279
503.67	19.112
506.081	16.513
508.491	14.411
510.902	0.242
513.312	2.924
515.723	10.218
518.133	1.285
520.544	0.562
522.955	0.235
525.365	0.223
527.776	15.22
530.187	7.648
532.597	7.354
535.008	13.065
537.418	6.95
539.829	7.331
542.239	8.815
544.65	14.74
547.061	13.431
549.471	31.731
551.882	50.775
554.292	56.502
556.703	59.809
559.114	63.217
561.524	83.133
563.935	84.626
566.345	90.668
568.756	109.157
571.166	132.232
573.577	155.772
575.988	172.173
578.398	176.967
580.809	185.832
583.219	215.509
585.63	227.309
588.041	218.165
590.451	227.688
592.862	229.693
595.272	243.708
597.683	214.696
600.093	199.873
602.504	174.505
604.915	157.205
607.325	147.766
609.736	114.316
612.146	106.311
614.557	96.04
616.968	97.345
619.378	71.852
621.789	83.182
624.199	50.174
626.61	56.752
629.02	61.976
631.431	49.415
633.842	43.841
636.252	40.738
638.663	41.331
641.073	28.729
643.484	33.154
645.895	35.491
648.305	20.835
650.716	31.384
653.126	11.625
655.537	20.473
657.948	15.966
660.358	8.955
662.769	22.594
665.179	30.465
667.59	22.554
670	5.374
672.411	4.214
674.822	11.481
677.232	4.256
679.643	1.744
682.053	1.261
684.464	15.269
686.875	7.941
689.285	20.291
691.696	1.238
694.106	19.621
696.517	10.231
698.927	1.598
701.338	17.309
703.749	5.174
706.159	5.655
708.57	17.312
710.98	10.397
713.391	6.31
715.802	7.002
718.212	10.999
720.623	12.235
723.033	14.905
725.444	33.088
727.854	1.86
730.265	13.718
732.676	15.718
735.086	15.6
737.497	19.254
739.907	11.058
742.318	8.155
744.729	12.466
747.139	10.501
749.55	18.025
751.96	7.68
754.371	14.103
756.781	14.917
759.192	0.07
761.603	28.686
764.013	19.155
766.424	2.201
768.834	27.701
771.245	22.189
773.656	34.196
776.066	36.702
778.477	5.607
780.887	11.871
783.298	17.394
785.708	21.108
788.119	24.844
790.53	22.688
792.94	28.965
795.351	22.961
797.761	23.877
800.172	20.465
802.583	24.652
804.993	8.162
807.404	11.852
809.814	14.246
812.225	18.941
814.635	13.869
817.046	15.034
819.457	20.569
821.867	9.353
824.278	13.291
826.688	3.71
829.099	5.157
831.51	8.82
833.92	10.14
836.331	1.367
838.741	4.922
841.152	6.678
843.563	0.197
845.973	10.708
848.384	2.162
850.794	4.695
853.205	1.904
855.615	0.657
858.026	9.611
860.437	11.094
862.847	1.804
865.258	4.052
867.668	9.018
870.079	8.102
872.49	7.075
874.9	0.694
877.311	3.791
879.721	8.855
882.132	22.466
884.542	12.031
886.953	16.376
889.364	11.802
891.774	2.02
894.185	8.73
896.595	16.991
899.006	24.723
901.417	22.051
903.827	26.012
906.238	14.635
908.648	6.574
911.059	25.316
913.469	16.155
915.88	13.264
918.291	21.142
920.701	9.379
923.112	24.884
925.522	26.552
927.933	20.553
930.344	30.28
932.754	31.443
935.165	16.791
937.575	40.183
939.986	30.665
942.396	29.942
944.807	45.195
947.218	33.116
949.628	46.964
952.039	62.059
954.45	60.247
956.86	45.997
959.271	53.937
961.681	60.215
964.092	64.709
966.502	60.974
968.913	49.241
971.323	50.491
973.734	78.067
976.145	49.207
978.555	53.669
980.966	51.924
983.377	47.076
985.787	46.152
988.198	38.971
990.608	38.173
993.019	29.895
995.429	15.757
997.84	30.005
1000.25	32.955
1002.66	10.94
1005.07	11.968
1007.48	20.793
1009.89	6.99
1012.3	18.498
1014.71	2.242
1017.12	4.577
1019.53	16.651
1021.95	9.973
1024.36	24.192
1026.77	10.86
1029.18	13.731
1031.59	22.625
1034	14.266
1036.41	5.307
