Measurement: Raman, 532 nm, unoriented, Raman Data Processed
Mineral: Turkestanite
Rruff sample: R060525
Ideal chemistry: (K,[box])(Ca,Na)_2_ThSi_8_O_20_nH_2_O
Locality: DeMix Quarry, Mont St. Hilaire, Rouville County, Quebec, Canada
Source: Michael Scott
Description: Divergent group of brown rectangular prisms
Measured chemistry: K_0.50_(Ca_0.78_Na_0.77_K_0.12_Mn_0.14_Al_0.07_Fe_0.05_U_0.02_Pb_0.02_Ce_0.02_Nd_0.01_)_Î£=2.00_Th_1.04_Si_8_O_20_
Raman shift (cm-1)	intensity
202.343	0
205.236	2.19528
208.129	2.66989
211.021	4.15854
213.914	0.391449
216.807	4.47369
219.699	1.96329
222.592	6.88568
225.485	4.69934
228.377	5.00617
231.27	0.033295
234.163	3.96018
237.056	7.12106
239.948	2.55164
242.841	0.495178
245.734	1.68426
248.626	3.56751
251.519	0.799591
254.412	3.81393
257.305	4.81513
260.197	1.62292
263.09	0.051605
265.983	5.4982
268.875	2.64246
271.768	4.05228
274.661	5.45529
277.553	6.48468
280.446	8.61115
283.339	6.5578
286.232	0.18277
289.124	6.013
292.017	12.9156
294.91	11.2113
297.802	13.5237
300.695	15.7676
303.588	12.2851
306.481	10.8897
309.373	4.63699
312.266	6.13797
315.159	9.23084
318.051	7.19995
320.944	1.77374
323.837	3.87781
326.729	6.0509
329.622	1.93109
332.515	5.11377
335.408	4.52521
338.3	3.12219
341.193	6.88904
344.086	5.40521
346.978	2.27551
349.871	6.64947
352.764	8.34808
355.656	14.0085
358.549	8.51367
361.442	14.4377
364.334	14.5258
367.227	15.8346
370.12	9.15485
373.012	11.7942
375.905	4.61664
378.798	8.29175
381.691	0.550964
384.583	1.89276
387.476	0.131104
390.369	0.618713
393.261	0.434937
396.154	1.87933
399.047	0.948242
401.94	0.941345
404.832	5.64557
407.725	6.09259
410.618	9.1806
413.51	10.0458
416.403	9.2876
419.296	9.78815
422.188	11.8955
425.081	16.7923
427.974	17.9822
430.866	24.6202
433.759	23.1086
436.652	25.483
439.545	23.7435
442.437	26.2736
445.33	20.4648
448.223	24.2935
451.115	22.9074
454.008	22.8039
456.901	24.4535
459.793	22.074
462.686	25.8064
465.579	23.6315
468.472	22.2355
471.364	14.8778
474.257	10.8925
477.15	8.42035
480.042	7.36621
482.935	6.07989
485.828	3.74579
488.721	3.29639
491.613	2.37152
494.506	2.43072
497.399	3.02783
500.291	4.04498
503.184	2.66028
506.077	0.69458
508.969	1.92456
511.862	0.310303
514.755	1.33032
517.648	2.56366
520.54	1.00726
523.433	4.36426
526.326	4.49933
529.218	4.32483
532.111	2.81097
535.004	0.009949
537.896	4.62799
540.789	4.2439
543.682	3.56061
546.575	4.46674
549.467	3.67725
552.36	7.99579
555.253	6.19543
558.145	4.61511
561.038	3.26025
563.931	5.49268
566.823	7.97253
569.716	6.49396
572.609	3.41589
575.502	3.69586
578.394	4.17413
581.287	6.82666
584.18	6.67059
587.072	4.93378
589.965	8.54096
592.858	3.42206
595.75	4.69629
598.643	2.53479
601.536	1.60455
604.428	1.59186
607.321	1.46124
610.214	2.69635
613.107	8.24085
615.999	5.95917
618.892	8.02942
621.785	4.79266
624.677	3.31549
627.57	1.85346
630.463	0.672607
633.356	1.74902
636.248	3.32623
639.141	5.34186
642.034	5.4325
644.926	5.38098
647.819	7.13684
650.712	5.47607
653.604	7.36908
656.497	7.41235
659.39	11.5137
662.283	5.27325
665.175	5.80157
668.068	1.52625
670.961	5.31171
673.853	2.00739
676.746	2.34827
679.639	2.04663
682.531	5.43311
685.424	6.51337
688.317	2.50751
691.21	5.81848
694.102	1.87756
696.995	5.55029
699.888	5.47266
702.78	2.33868
705.673	0.09436
708.566	1.67444
711.458	3.77966
714.351	3.5658
717.244	1.97601
720.136	0.361572
723.029	4.41547
725.922	0.517212
728.815	5.4845
731.707	2.61322
734.6	0.439087
737.493	0.748901
740.385	2.14233
743.278	0.066589
746.171	1.30212
749.063	2.19769
751.956	2.71106
754.849	6.9151
757.742	4.22235
760.634	1.65533
763.527	3.96698
766.42	3.39032
769.312	3.74347
772.205	6.50146
775.098	6.63031
777.99	7.55347
780.883	6.43304
783.776	3.1958
786.669	5.9057
789.561	4.96204
792.454	6.55585
795.347	4.97711
798.239	7.91657
801.132	0.174622
804.025	3.42041
806.918	5.13464
809.81	4.34747
812.703	4.92248
815.596	11.0891
818.488	5.4223
821.381	4.2973
824.274	6.60852
827.166	3.92059
830.059	5.57367
832.952	4.35229
835.845	7.53937
838.737	2.54614
841.63	3.08405
844.523	0.690735
847.415	3.42896
850.308	3.20728
853.201	6.65027
856.093	5.97131
858.986	3.13776
861.879	2.77698
864.771	4.5144
867.664	2.48779
870.557	6.19031
873.45	8.53101
876.342	5.18042
879.235	6.461
882.128	1.66003
885.02	6.6731
887.913	5.63092
890.806	8.03491
893.698	7.03491
896.591	2.1308
899.484	2.51196
902.377	0.914307
905.269	3.82208
908.162	2.60028
911.055	5.86188
913.947	3.00604
916.84	4.14056
919.733	0.945251
922.625	0.300964
925.518	1.16937
928.411	2.97107
931.304	0.443848
934.196	13.7331
937.089	4.20508
939.982	0.274414
942.875	2.2782
945.767	14.1003
948.66	3.48218
951.553	2.14014
954.445	2.78326
957.338	1.45825
960.231	1.60663
963.123	1.15698
966.016	4.65869
968.909	5.78516
971.802	12.1244
974.694	6.97907
977.587	8.41705
980.48	7.15186
983.372	12.8407
986.265	10.9774
989.158	11.6926
992.05	13.8171
994.943	20.8834
997.836	18.3245
1000.73	15.4763
1003.62	13.6705
1006.51	17.1438
1009.41	17.6392
1012.3	13.1908
1015.19	9.13654
1018.09	12.2007
1020.98	16.7003
1023.87	10.5839
1026.76	7.336
1029.66	10.8304
1032.55	11.0305
1035.44	8.45435
1038.33	6.73456
1041.23	4.53564
1044.12	1.26788
1047.01	0.076965
1049.9	6.67657
1052.8	4.1922
1055.69	0.324707
1058.58	2.89947
1061.47	0.008789
1064.37	0.015137
1067.26	0.411682
1070.15	1.75409
1073.05	0.214966
1075.94	0.634338
1078.83	0.697754
1081.72	0.43512
1084.62	4.79584
1087.51	0.528564
1090.4	2.16412
1093.3	3.84051
1096.19	4.41162
1099.08	7.24554
1101.97	4.12817
1104.87	10.6545
1107.76	12.9933
1110.65	16.0071
1113.54	14.8732
1116.44	19.6072
1119.33	20.8162
1122.22	21.2833
1125.12	18.0908
1128.01	19.6802
1130.9	18.9247
1133.79	9.51209
1136.68	14.6009
1139.58	6.51495
1142.47	6.13025
1145.36	7.28461
1148.26	2.84222
1151.15	1.80646
1154.04	0.334717
1156.93	1.31854
1159.83	1.22485
1162.72	3.57312
1165.61	0.485291
1168.51	2.45178
1171.4	3.48132
1174.29	1.39417
1177.18	4.15314
1180.08	1.29486
1182.97	2.2265
1185.86	2.6709
1188.75	5.11169
1191.65	0.187561
1194.54	4.12384
1197.43	4.26129
1200.33	3.47699
1203.22	3.9433
1206.11	5.55542
1209	6.02637
1211.9	1.85077
1214.79	6.43433
1217.68	0.533813
1220.57	4.16821
1223.47	1.41052
1226.36	5.15637
1229.25	2.10229
1232.14	0.219482
1235.04	6.69238
1237.93	2.625
1240.82	2.72003
1243.71	0.535217
1246.61	0.745667
1249.5	1.8078
1252.39	5.14209
1255.29	3.17096
1258.18	6.51447
1261.07	2.41693
1263.96	6.08423
1266.86	4.23065
1269.75	5.16351
1272.64	2.93933
1275.54	5.31073
1278.43	4.77301
1281.32	3.39508
1284.21	3.92957
1287.11	6.48114
1290	4.53027
1292.89	5.57709
1295.78	6.41943
1298.68	7.23749
1301.57	2.53937
