Measurement: Raman, 780 nm, unoriented, Raman Data Processed
Mineral: Turquoise
Rruff sample: R050554
Ideal chemistry: Cu^2+^Al_6_(P^5+^O_4_)_4_(OH)_8_4H_2_O
Locality: Bishop mine, Lynch Station, Campbell County, Virginia, USA
Source: Dave Bunk Minerals
Description: Group of blue bladed crystals
Measured chemistry: (Cu_0.97_Zn_0.02_Ca_0.01_)_Σ=1_Al_6.00_(P_1.00_O_4_)_4_(OH)_8_·4H_2_O
Raman shift (cm-1)	intensity
92.3769	0
95.7518	43.7643
99.1266	73.9174
102.501	88.0936
105.876	80.2253
109.251	19.0938
112.626	6.22449
116.001	0.640778
119.376	14.1141
122.75	34.4562
126.125	38.0198
129.5	20.4298
132.875	17.6147
136.25	20.7395
139.624	25.5143
142.999	6.75717
146.374	2.11435
149.749	2.01709
153.124	8.78674
156.499	5.86157
159.873	0.449219
163.248	0.845825
166.623	7.86877
169.998	25.6585
173.373	54.1715
176.747	75.9726
180.122	50.6399
183.497	44.8682
186.872	63.9685
190.247	84.5028
193.621	104.521
196.996	114.817
200.371	119.13
203.746	129.773
207.121	146.001
210.495	141.966
213.87	123.561
217.245	109.01
220.62	90.2932
223.995	76.403
227.37	77.4558
230.744	82.757
234.119	65.8326
237.494	48.8672
240.869	51.5359
244.244	47.2048
247.619	41.4349
250.993	45.5312
254.368	55.7809
257.743	69.9732
261.118	65.6737
264.493	44.5539
267.867	26.3092
271.242	14.5072
274.617	8.03303
277.992	0.965546
281.367	2.92952
284.741	2.98964
288.116	4.89983
291.491	4.10689
294.866	9.72824
298.241	16.5848
301.616	25.8864
304.99	31.0045
308.365	46.0691
311.74	59.9839
315.115	78.058
318.49	91.6326
321.865	101.345
325.239	106.13
328.614	104.862
331.989	99.8151
335.364	81.1566
338.739	63.6189
342.113	42.5566
345.488	22.7279
348.863	7.173
352.238	1.58476
355.613	1.67044
358.987	2.5304
362.362	2.40428
365.737	0.156326
369.112	11.0105
372.487	17.0719
375.861	26.9124
379.236	37.831
382.611	39.8585
385.986	38.4055
389.361	28.6882
392.736	19.5136
396.11	18.1557
399.485	19.9092
402.86	22.9097
406.235	25.9789
409.61	35.8011
412.985	43.0632
416.359	45.8551
419.734	37.8271
423.109	34.7979
426.484	31.6262
429.859	31.2126
433.233	28.0633
436.608	23.1782
439.983	18.8411
443.358	11.4668
446.733	4.47455
450.108	3.27711
453.482	3.11205
456.857	10.6489
460.232	19.4815
463.607	29.3434
466.982	21.2502
470.356	13.6214
473.731	9.06984
477.106	5.66536
480.481	5.01421
483.856	4.89723
487.231	2.19663
490.605	0.159073
493.98	0.290131
497.355	0.097061
500.73	2.58057
504.104	2.0531
507.479	2.3893
510.854	3.4377
514.229	5.34727
517.604	1.37244
520.979	0.566788
524.354	6.41013
527.728	9.81734
531.103	14.9049
534.478	21.1365
537.853	23.9372
541.227	30.7831
544.602	27.0884
547.977	19.6223
551.352	13.5313
554.727	6.50249
558.102	5.31583
561.476	4.58072
564.851	7.57417
568.226	7.81708
571.601	7.16757
574.976	4.86284
578.351	0.077988
581.725	2.24495
585.1	5.34772
588.475	5.53473
591.85	5.11488
595.225	5.34549
598.599	0.134644
601.974	0.501694
605.349	2.42024
608.724	2.52779
612.099	6.5235
615.473	11.9096
618.848	17.0817
622.223	25.0432
625.598	35.1135
628.973	43.2612
632.347	46.2356
635.722	50.0777
639.097	56.6022
642.472	51.1693
645.847	45.0971
649.222	38.7373
652.596	30.8002
655.971	26.0069
659.346	21.3488
662.721	18.0234
666.096	14.822
669.471	10.5543
672.845	9.0374
676.22	7.75615
679.595	10.0345
682.97	8.1176
686.345	8.62685
689.719	10.8273
693.094	12.5935
696.469	19.2467
699.844	18.329
703.219	15.4946
706.593	7.85187
709.968	6.25362
713.343	1.14792
716.718	2.04076
720.093	1.95175
723.468	0.099274
726.842	0.229385
730.217	1.23937
733.592	2.29016
736.967	1.6144
740.342	1.86484
743.716	1.79971
747.091	1.15382
750.466	0.629852
753.841	1.74117
757.216	1.44022
760.591	0.532074
763.965	0.26326
767.34	0.343918
770.715	0.16935
774.09	1.86006
777.465	2.03361
780.84	4.16202
784.214	4.6085
787.589	4.97614
790.964	10.3074
794.339	9.89675
797.714	14.1606
801.088	19.2874
804.463	20.1597
807.838	27.3602
811.213	26.2627
814.588	23.3523
817.962	20.7722
821.337	18.9857
824.712	15.0992
828.087	10.7897
831.462	10.4894
834.837	7.96106
838.211	8.1981
841.586	7.38429
844.961	7.00939
848.336	6.70637
851.711	4.42369
855.085	5.68721
858.46	2.83973
861.835	3.8553
865.21	2.95606
868.585	3.67644
871.96	3.3664
875.334	2.98657
878.709	2.40859
882.084	2.05513
885.459	1.73087
888.834	0.475204
892.208	1.31125
895.583	2.15067
898.958	1.06698
902.333	2.55494
905.708	1.70319
909.082	1.25097
912.457	0.62394
915.832	0.293556
919.207	2.02268
922.582	2.05649
925.957	2.0892
929.331	3.22383
932.706	3.5232
936.081	2.98237
939.456	1.16317
942.831	2.82677
946.205	1.50507
949.58	1.98368
952.955	0.07299
956.33	2.17593
959.705	2.40169
963.08	1.94492
966.454	1.15814
969.829	1.65898
973.204	5.26469
976.579	5.4406
979.954	7.49998
983.328	7.42206
986.703	6.09856
990.078	8.92636
993.453	9.49648
996.828	11.1933
1000.2	9.6443
1003.58	11.8697
1006.95	12.8632
1010.33	14.1675
1013.7	16.4391
1017.08	21.4928
1020.45	31.2032
1023.83	45.2125
1027.2	61.7226
1030.58	84.7205
1033.95	105.87
1037.33	123.916
1040.7	121.754
1044.08	99.356
1047.45	72.99
1050.83	56.2608
1054.2	41.4319
1057.57	35.1004
1060.95	31.0893
1064.32	28.2009
1067.7	20.5899
1071.07	14.9346
1074.45	10.5036
1077.82	7.19595
1081.2	6.02803
1084.57	3.85123
1087.95	2.83111
1091.32	6.83139
1094.7	9.16556
1098.07	8.98045
1101.45	9.49056
1104.82	7.35316
1108.2	4.96491
1111.57	4.38448
1114.95	0.952469
1118.32	1.16788
1121.7	1.12839
1125.07	0.686836
1128.45	0.259033
1131.82	0.183578
1135.19	0.079346
1138.57	0.055283
1141.94	0.088867
1145.32	1.63171
1148.69	4.36331
1152.07	6.45843
1155.44	8.84674
1158.82	9.36742
1162.19	8.03498
1165.57	6.32998
1168.94	6.25291
1172.32	5.43137
1175.69	6.86149
1179.07	4.45256
1182.44	5.5503
1185.82	7.41361
1189.19	3.88596
1192.57	2.91042
1195.94	2.86387
1199.32	3.29765
1202.69	1.69761
1206.07	2.44599
1209.44	1.91248
1212.82	1.2113
1216.19	3.30137
1219.57	1.31352
1222.94	1.76842
1226.32	3.43839
1229.69	1.11961
1233.07	3.95076
1236.44	2.06535
1239.81	4.68902
1243.19	0.990715
1246.56	3.40029
1249.94	0.231918
1253.31	2.07011
1256.69	3.15722
1260.06	1.31337
1263.44	3.52112
1266.81	2.24824
1270.19	2.61932
1273.56	1.48119
1276.94	4.22482
1280.31	2.87566
1283.69	2.86342
