Measurement: Raman, 785 nm, unoriented, Raman Data Processed
Mineral: Turtmannite
Rruff sample: R070089
Ideal chemistry: Mn^2+^_25_O_5_(V^5+^O_4_)_3_(SiO_4_)_3_(OH)_20_
Locality: Pipjigletscher, Turtmanntal, Wallis, Switzerland
Source: Michael Scott
Description: Yellow micaceous
Raman shift (cm-1)	intensity
249.553	0
252.446	157.414
255.339	22.3359
258.231	169.609
261.124	326.43
264.017	305.594
266.909	382.625
269.802	346.016
272.695	109.465
275.587	205.195
278.48	293.383
281.373	461.133
284.265	596.219
287.158	607.481
290.051	348.066
292.944	380.203
295.836	121.676
298.729	117.949
301.622	246.965
304.514	561.75
307.407	434.637
310.3	441.297
313.192	590.363
316.085	191.359
318.978	150.602
321.871	192.644
324.763	238.188
327.656	315.227
330.549	368.465
333.441	336.348
336.334	457.648
339.227	47.0352
342.12	137.914
345.012	168.25
347.905	151.785
350.798	354.375
353.69	336.887
356.583	366.934
359.476	398.32
362.368	318.293
365.261	279.566
368.154	484.543
371.046	448.777
373.939	529.672
376.832	372.871
379.725	174.453
382.617	41.168
385.51	49.0117
388.403	113.754
391.295	270.91
394.188	280.027
397.081	171.297
399.974	82.8516
402.866	143.492
405.759	81.6758
408.652	38.1328
411.544	28.4922
414.437	115.664
417.33	190.156
420.222	117.863
423.115	292.457
426.008	71.9883
428.901	28.1992
431.793	34.6641
434.686	18.7969
437.579	98.9414
440.471	151.996
443.364	142.723
446.257	320.805
449.149	13.1328
452.042	1.51953
454.935	172.035
457.827	27.0859
460.72	24.0039
463.613	217.586
466.506	237.324
469.398	243.418
472.291	123.453
475.184	81.707
478.076	141.008
480.969	9.82031
483.862	119.609
486.755	131.414
489.647	363.352
492.54	89.3047
495.433	186.867
498.325	10.1211
501.218	59.4492
504.111	119.231
507.003	184.758
509.896	306.305
512.789	285.301
515.682	307.211
518.574	321.191
521.467	190.644
524.36	313.043
527.252	127.809
530.145	215.66
533.038	412.519
535.93	269.043
538.823	77.6953
541.716	290.688
544.609	232.856
547.501	117.512
550.394	68.9258
553.287	132.309
556.179	43.8242
559.072	96.7773
561.965	258.023
564.857	87.7695
567.75	82.5977
570.643	27.9883
573.535	95.6328
576.428	6.34375
579.321	56.168
582.214	272.519
585.106	429.656
587.999	214.664
590.892	38.5977
593.784	172.594
596.677	124.594
599.57	254.297
602.462	343.969
605.355	280.848
608.248	104.766
611.141	165.664
614.033	111.379
616.926	11.1641
619.819	16.4961
622.711	186.805
625.604	131.984
628.497	134.406
631.389	183.027
634.282	393.836
637.175	343.945
640.068	251.875
642.96	281.148
645.853	277.887
648.746	182.414
651.638	120.238
654.531	268.992
657.424	224.742
660.317	142.848
663.209	96.5469
666.102	6.01562
668.995	301.832
671.887	160.332
674.78	298.078
677.673	190.09
680.565	236.574
683.458	158.797
686.351	73.6758
689.244	228.305
692.136	73.7227
695.029	228.508
697.922	262.336
700.814	323.414
703.707	154.387
706.6	259.797
709.492	278.918
712.385	257.988
715.278	86.3555
718.17	295.047
721.063	231.566
723.956	201.832
726.849	205.383
729.741	90.4336
732.634	28.7695
735.527	311.242
738.419	20.9531
741.312	19.5
744.205	40.8594
747.097	152.852
749.99	160.375
752.883	196.918
755.776	178.961
758.668	100.66
761.561	78.9062
764.454	137.188
767.346	248.394
770.239	302.836
773.132	383.738
776.024	602.562
778.917	506.211
781.81	837.176
784.703	946.82
787.595	1176.07
790.488	1230.38
793.381	1344.37
796.273	1598.47
799.166	1401.65
802.059	1248.53
804.952	1458.18
807.844	1515.66
810.737	1323.63
813.63	1379.82
816.522	1343.66
819.415	1083.2
822.308	1047.07
825.2	751.66
828.093	765.738
830.986	619.168
833.879	344.781
836.771	318.629
839.664	442.883
842.557	274.848
845.449	173.57
848.342	170.328
851.235	56.5312
854.127	170.207
857.02	4.33203
859.913	103.836
862.806	222.227
865.698	13.5781
868.591	49.1719
871.484	85.5391
874.376	47.1406
877.269	91.2891
880.162	140.133
883.054	54.4492
885.947	26.9766
888.84	30.0078
891.732	27.8711
894.625	80.4883
897.518	132.234
900.411	311.141
903.303	123.703
906.196	156.613
909.089	312.203
911.981	192.312
914.874	48.5703
917.767	186.699
920.659	113.863
923.552	256.242
926.445	201.469
929.338	208.402
932.23	272.301
935.123	138.227
938.016	97.4414
940.908	108.086
943.801	100.625
946.694	202.527
949.587	133.172
952.479	78.0938
955.372	91.1094
958.265	24.8086
961.157	181.945
964.05	192.328
966.943	212.398
969.835	11.5273
972.728	164.082
975.621	27.4336
978.514	225.094
981.406	180.043
984.299	289.473
987.192	275.68
990.084	71.1328
992.977	108.344
995.87	143.359
998.762	156.348
1001.65	53.8008
1004.55	93.4922
1007.44	152.914
1010.33	208.586
1013.23	168.074
1016.12	216.391
1019.01	161.57
1021.9	304.719
1024.8	6.09375
1027.69	112.082
1030.58	156.988
1033.47	78.5859
1036.37	118.613
1039.26	52.707
1042.15	165.781
1045.05	142.188
1047.94	8.71484
1050.83	41.5469
1053.72	116.086
1056.62	65.4688
1059.51	242.707
1062.4	135.68
1065.29	196.551
1068.19	190.519
1071.08	197.18
1073.97	253.004
1076.87	286.832
1079.76	198.801
1082.65	196.125
1085.54	284.602
1088.44	210.262
1091.33	80.0156
1094.22	136.324
1097.11	140.594
1100.01	175.672
1102.9	183.383
1105.79	420.055
1108.68	107.68
1111.58	410.856
1114.47	14.6406
1117.36	93.1914
1120.26	31.1641
1123.15	211.508
1126.04	12.5156
1128.93	94.6133
1131.83	51.2383
1134.72	116.648
1137.61	138.285
1140.51	100.41
1143.4	313.348
1146.29	288.035
1149.18	87.9336
1152.08	34.6523
1154.97	183.656
1157.86	153.188
1160.75	163.09
1163.65	170.82
1166.54	185.711
1169.43	187.07
1172.32	150.305
1175.22	9.41406
1178.11	31.8359
1181	86.9922
1183.89	8.72656
1186.79	47.6133
1189.68	19.3125
1192.57	125.941
1195.47	346.758
1198.36	113.098
1201.25	237.125
1204.14	122.957
1207.04	98.8672
1209.93	43.4688
1212.82	118.312
1215.71	68.7812
1218.61	125.113
1221.5	157.43
1224.39	231.484
1227.29	189.238
1230.18	271.727
1233.07	107.027
1235.96	17.5
1238.86	275.152
1241.75	0
