Measurement: Raman, 532 nm, unoriented, Raman Data Processed
Mineral: Turtmannite
Rruff sample: R070089
Ideal chemistry: Mn^2+^_25_O_5_(V^5+^O_4_)_3_(SiO_4_)_3_(OH)_20_
Locality: Pipjigletscher, Turtmanntal, Wallis, Switzerland
Source: Michael Scott
Description: Yellow micaceous
Raman shift (cm-1)	intensity
176.697	0
179.59	54.9853
182.482	50.3301
185.375	17.334
188.268	119.82
191.161	127.441
194.053	60.8457
196.946	169.536
199.839	134.75
202.731	177.269
205.624	222.893
208.517	128.83
211.409	188.442
214.302	194.409
217.195	268.327
220.088	245.036
222.98	241.551
225.873	228.787
228.766	187.625
231.658	128.6
234.551	227.295
237.444	203.926
240.337	190.785
243.229	215.301
246.122	93.5195
249.015	98.2461
251.907	146.793
254.8	154.152
257.693	136.141
260.585	68.7324
263.478	95.9863
266.371	122.199
269.264	65.3555
272.156	164.557
275.049	129.844
277.942	138.981
280.834	129.273
283.727	155.004
286.62	86.6367
289.512	95.0078
292.405	112.643
295.298	40.6738
298.19	20.0938
301.083	36.0234
303.976	53.2383
306.869	97.8477
309.761	26.9766
312.654	9.45898
315.547	87.2852
318.439	22.3047
321.332	8.62891
324.225	50.2363
327.118	58.8574
330.01	97.8789
332.903	157.154
335.796	26.0605
338.688	153.428
341.581	175.182
344.474	189.113
347.366	166.434
350.259	79.9004
353.152	184.379
356.045	89.918
358.937	134.738
361.83	180.236
364.723	131.316
367.615	93.7637
370.508	99.2207
373.401	136.18
376.293	95.4727
379.186	89.7578
382.079	5.33203
384.971	158.809
387.864	60.9551
390.757	8.25
393.65	180.857
396.542	126.424
399.435	105.893
402.328	50.332
405.22	152.193
408.113	145.758
411.006	15.1895
413.899	77.8379
416.791	61.8379
419.684	142.475
422.577	13.1016
425.469	231.611
428.362	54.6914
431.255	196.502
434.147	124.353
437.04	72.2422
439.933	8.67578
442.825	187.721
445.718	184.699
448.611	163.31
451.504	118.916
454.396	114.504
457.289	95.2715
460.182	107.365
463.074	63.1445
465.967	85.9941
468.86	100.574
471.752	106.035
474.645	20.7148
477.538	193.666
480.431	129.818
483.323	142.973
486.216	126.391
489.109	97.2324
492.001	171.478
494.894	215.338
497.787	95.1914
500.68	55.6152
503.572	63.5977
506.465	206.848
509.358	167.111
512.25	196.703
515.143	92.0293
518.036	53.2734
520.928	64
523.821	51.9453
526.714	11.4062
529.606	95.1914
532.499	65.4844
535.392	84.7207
538.285	54.3516
541.177	130.965
544.07	94.3184
546.963	142.566
549.855	44.1953
552.748	86.7305
555.641	86.3301
558.534	68.4473
561.426	168.148
564.319	0.115234
567.212	131.606
570.104	17.0801
572.997	138.268
575.89	20.1016
578.782	159.898
581.675	156.815
584.568	32.168
587.461	93.7188
590.353	252.65
593.246	157.779
596.139	97.3906
599.031	203.15
601.924	180.691
604.817	137.504
607.71	84.2031
610.602	55.1973
613.495	233.057
616.388	191.619
619.28	88.5723
622.173	133.135
625.066	235.785
627.958	223.981
630.851	172.711
633.744	258.053
636.636	166.731
639.529	281.613
642.422	344.725
645.315	235.885
648.207	302.522
651.1	237.799
653.993	266.195
656.885	237.572
659.778	149.203
662.671	309.185
665.563	295.879
668.456	125.42
671.349	117.328
674.242	151.291
677.134	71.2598
680.027	108.318
682.92	186.041
685.812	115.49
688.705	54.252
691.598	132.799
694.49	101.266
697.383	68.8359
700.276	56.7754
703.169	76.1309
706.061	40.3164
708.954	38.9531
711.847	112.516
714.739	14.8555
717.632	80.793
720.525	4.72656
723.418	15.5039
726.31	27.9395
729.203	32.4004
732.096	142.838
734.988	29.0312
737.881	131.789
740.774	72.2363
743.666	102.113
746.559	173.451
749.452	200.344
752.345	220.119
755.237	324.193
758.13	368.219
761.023	481.131
763.915	683.848
766.808	922.356
769.701	1121.22
772.593	1463.74
775.486	1702.5
778.379	2181.69
781.271	2427.26
784.164	2892.35
787.057	3403.31
789.95	3905.83
792.842	4057.75
795.735	4293.02
798.628	4466.41
801.52	4429.99
804.413	4311.56
807.306	4335.95
810.198	4158.05
813.091	3802.47
815.984	3279.85
818.877	2574.57
821.769	2265.49
824.662	1817.67
827.555	1322.6
830.447	1072.93
833.34	852.846
836.233	709.721
839.125	628.195
842.018	429.809
844.911	489.273
847.804	267.49
850.696	173.414
853.589	40.8359
856.482	118.008
859.374	184.426
862.267	4.84375
865.16	51.7617
868.053	123.367
870.945	99.2383
873.838	47.0664
876.731	15.5547
879.623	83.6602
882.516	64.7344
885.409	78.6172
888.301	52.9961
891.194	67.5742
894.087	6.39453
896.98	101.414
899.872	85.4727
902.765	22.7383
905.658	92.8398
908.55	131.418
911.443	4.57812
914.336	120.016
917.228	61.1406
920.121	126.516
923.014	66.6406
925.907	238.262
928.799	191.859
931.692	13.7852
934.585	115.824
937.477	68.4531
940.37	30.7188
943.263	196.465
946.155	29.793
949.048	23.3555
951.941	202.125
954.834	243.16
957.726	174.926
960.619	31.7578
963.512	196.598
966.404	73.3711
969.297	274.75
972.19	79.043
975.082	129.078
977.975	271.133
980.868	152.5
983.761	179.781
986.653	69.2969
989.546	40.7422
992.439	61.2695
995.331	111.164
998.224	63.6758
1001.12	200.477
1004.01	29.7305
1006.9	94.8789
1009.79	50.5234
1012.69	36.9766
1015.58	48.2773
1018.47	238.504
1021.37	27.668
1024.26	64.5469
1027.15	178.336
1030.04	25.8398
1032.94	63.6875
1035.83	105.648
1038.72	113.606
1041.62	98.0078
1044.51	119.617
1047.4	51.6289
1050.29	203.043
1053.18	226.832
1056.08	265.766
1058.97	195.691
1061.86	202.082
1064.76	15.6914
1067.65	26.7812
1070.54	6.35938
1073.43	66.9766
1076.33	180.832
1079.22	124.961
1082.11	184.465
1085.01	222.879
1087.9	168.641
1090.79	181.863
1093.68	159.527
1096.58	123.625
1099.47	131.129
1102.36	70.9961
1105.25	154.707
1108.15	40.9297
1111.04	189.852
1113.93	217.91
1116.83	235.199
1119.72	118.832
1122.61	234.055
1125.5	69.4531
1128.4	200.789
1131.29	66.4883
1134.18	182.152
1137.07	123.656
1139.97	44.4062
1142.86	85.8164
1145.75	323.805
1148.64	170.703
1151.54	36.5898
1154.43	146.035
1157.32	159.867
1160.21	131.238
1163.11	129.231
1166	105.281
1168.89	148.574
1171.79	130.82
1174.68	57.1875
1177.57	158.914
1180.46	158.273
1183.36	121.125
1186.25	125.254
1189.14	147.262
1192.04	181.539
1194.93	136.293
1197.82	109.223
1200.71	69.3398
1203.61	125.039
1206.5	88.4531
1209.39	138.144
1212.28	192.223
1215.18	160.273
1218.07	69.1484
1220.96	108.57
1223.86	121.16
1226.75	104.461
1229.64	61.3008
1232.53	269.641
1235.43	269.453
1238.32	230.707
1241.21	156.617
1244.1	244.844
1247	117.227
1249.89	147.688
1252.78	6.92578
1255.67	142.074
1258.57	126.137
1261.46	193.219
1264.35	117.449
1267.24	145.438
1270.14	267.656
1273.03	242.648
1275.92	235.023
1278.82	197.621
1281.71	263.801
1284.6	297.539
1287.49	229.41
1290.39	374.562
1293.28	92.3945
1296.17	83.3008
1299.07	85.4492
1301.96	169.359
1304.85	173.07
1307.74	160.68
1310.64	69.4375
