Measurement: Raman, 532 nm, unoriented, Raman Data Processed
Mineral: Tuscanite
Rruff sample: R050324
Ideal chemistry: KCa_6_(Si,Al)_10_O_22_(S^6+^O_4_,CO_3_)_2_(OH)H_2_O
Locality: Valle Biachella, Sacrofano, Roma, Lazio, Italy
Source: Marcus Origlieri
Description: Colorless platy crystals
Measured chemistry: K_1.00_(Ca_5.55_Na_0.45_)_Σ=6_(Si_6.62_Al_3.38_)_10_O_22_((SO_4_)_1.80_(PO_4_)_0.17_(CO_3_)_0.03_)_Σ=2_(OH)·H_2_O
Raman shift (cm-1)	intensity
155.993	0
158.886	1.68921
161.778	7.51953
164.671	9.72363
167.564	20.5122
170.456	21.5054
173.349	24.2988
176.242	28.6958
179.135	27.4194
182.027	15.4546
184.92	12.7029
187.813	16.0261
190.705	9.17065
193.598	29.3599
196.491	12.7759
199.383	13.1179
202.276	9.44141
205.169	5.13599
208.061	14.7183
210.954	8.5127
213.847	11.7893
216.74	20.0432
219.632	24.3699
222.525	0.064209
225.418	0.008545
228.31	2.13965
231.203	6.76221
234.096	6.95923
236.988	0.874512
239.881	8.19849
242.774	8.45703
245.667	18.9553
248.559	26.2925
251.452	26.1453
254.345	29.2849
257.237	32.489
260.13	47.581
263.023	40.4648
265.916	49.3276
268.808	51.2009
271.701	57.1687
274.594	65.2656
277.486	73.7493
280.379	68.6331
283.272	47.6594
286.164	35.3984
289.057	30.5437
291.95	28.3215
294.842	26.1711
297.735	11.6038
300.628	29.0794
303.521	43.9924
306.413	46.6272
309.306	41.4248
312.199	44.6001
315.091	41.5129
317.984	36.2366
320.877	35.4875
323.769	18.9751
326.662	43.54
329.555	49.9963
332.448	66.9446
335.34	85.0305
338.233	87.6953
341.126	103.736
344.018	65.928
346.911	84.6924
349.804	90.1084
352.697	74.605
355.589	51.0071
358.482	26.8887
361.375	13.0413
364.267	0.27832
367.16	0.338379
370.053	10.0298
372.945	3.19165
375.838	2.21435
378.731	11.967
381.623	23.1816
384.516	28.717
387.409	20.7895
390.302	16.1785
393.194	4.02759
396.087	3.32983
398.98	2.76831
401.872	8.22485
404.765	29.03
407.658	42.9116
410.55	59.7685
413.443	63.1038
416.336	75.0535
419.229	66.4519
422.121	52.2315
425.014	25.6301
427.907	16.532
430.799	35.2476
433.692	24.0747
436.585	46.3142
439.478	50.6938
442.37	50.1367
445.263	73.075
448.156	81.221
451.048	97.2285
453.941	87.8108
456.834	67.2219
459.726	62.4668
462.619	51.0725
465.512	62.939
468.404	63.3452
471.297	91.0063
474.19	84.2864
477.083	93.2642
479.975	89.5676
482.868	67.5439
485.761	67.4236
488.653	57.4312
491.546	58.2065
494.439	52.7344
497.332	96.9773
500.224	117.969
503.117	148.308
506.01	141.492
508.902	120.213
511.795	81.6936
514.688	56.6733
517.58	34.0107
520.473	18.072
523.366	9.37378
526.259	0.340088
529.151	10.0281
532.044	6.57104
534.937	2.03735
537.829	0.0354
540.722	0.56543
543.615	11.3291
546.507	18.0708
549.4	0.372559
552.293	16.6948
555.186	5.66382
558.078	2.05786
560.971	4.39893
563.864	9.39624
566.756	3.51538
569.649	6.10644
572.542	2.15381
575.434	6.26489
578.327	1.51367
581.22	15.1819
584.112	28.0144
587.005	12.1252
589.898	15.8215
592.791	16.5435
595.683	19.2173
598.576	20.2898
601.469	26.3923
604.361	21.0649
607.254	38.7551
610.147	44.884
613.039	51.3445
615.932	57.312
618.825	61.5764
621.718	67.1438
624.61	88.4705
627.503	99.3445
630.396	90.5147
633.288	90.7993
636.181	89.7566
639.074	85.0212
641.966	78.0754
644.859	68.8176
647.752	66.2659
650.645	66.7266
653.537	70.9475
656.43	42.408
659.323	38.9846
662.215	38.8501
665.108	33.5254
668.001	18.6538
670.894	17.9004
673.786	13.208
676.679	21.259
679.572	20.0923
682.464	11.7317
685.357	3.82812
688.25	2.1206
691.142	2.49585
694.035	0.60498
696.928	2.39526
699.821	13.0898
702.713	9.25415
705.606	6.12891
708.499	2.61328
711.391	4.37451
714.284	0.479248
717.177	7.26709
720.069	1.10718
722.962	3.40332
725.855	7.83398
728.747	5.38403
731.64	14.0286
734.533	11.2991
737.426	5.5083
740.318	6.9624
743.211	9.42334
746.104	17.3464
748.996	5.8606
751.889	1.55347
754.782	6.70898
757.674	18.3457
760.567	7.39966
763.46	19.561
766.353	25.0981
769.245	27.8528
772.138	15.812
775.031	31.575
777.923	7.67944
780.816	4.43213
783.709	8.80518
786.601	12.8997
789.494	6.08496
792.387	9.96167
795.28	10.1782
798.172	1.91186
801.065	0.269775
803.958	15.5623
806.85	19.3784
809.743	26.3093
812.636	9.75244
815.529	12.6638
818.421	18.5481
821.314	28.6252
824.207	30.7825
827.099	15.5627
829.992	5.02759
832.885	13.7871
835.777	12.4658
838.67	5.39844
841.563	2.68359
844.456	13.313
847.348	16.2266
850.241	11.2881
853.134	3.40454
856.026	12.5225
858.919	2.33252
861.812	8.97021
864.704	5.76929
867.597	14.8811
870.49	14.748
873.383	13.759
876.275	9.76904
879.168	8.53467
882.061	1.37158
884.953	8.42163
887.846	1.51978
890.739	14.9861
893.631	16.3555
896.524	13.5344
899.417	17.8091
902.309	36.0974
905.202	48.2986
908.095	44.6187
910.988	56.4001
913.88	72.8818
916.773	85.8662
919.666	102.205
922.558	112.729
925.451	126.007
928.344	131.606
931.236	133.945
934.129	118.686
937.022	108.772
939.915	82.8486
942.807	75.6152
945.7	51.4319
948.593	31.6575
951.485	21.7183
954.378	22.4919
957.271	5.6731
960.163	2.38281
963.056	4.59546
965.949	2.30542
968.842	18.1262
971.734	47.4441
974.627	104.669
977.52	174.182
980.412	283.002
983.305	426.845
986.198	567.323
989.091	683.064
991.983	649.487
994.876	419.716
997.769	214.235
1000.66	92.1047
1003.55	51.9319
1006.45	46.7612
1009.34	44.6199
1012.23	34.7131
1015.12	19.3513
1018.02	7.77612
1020.91	3.31299
1023.8	14.9282
1026.7	8.59766
1029.59	1.12476
1032.48	4.98022
1035.37	4.20654
1038.27	5.302
1041.16	7.93359
1044.05	0.422119
1046.94	4.948
1049.84	8.80542
1052.73	10.8716
1055.62	29.73
1058.52	41.3533
1061.41	32.4524
1064.3	34.5537
1067.19	30.8164
1070.09	27.54
1072.98	19.3105
1075.87	24.2036
1078.76	7.30981
1081.66	14.8296
1084.55	19.3147
1087.44	6.42969
1090.34	0.170654
1093.23	3.3103
1096.12	4.39673
1099.01	6.25806
1101.91	13.5742
1104.8	0.499023
1107.69	2.11353
1110.58	3.87036
1113.48	15.0666
1116.37	10.394
1119.26	9.90649
1122.15	11.8545
1125.05	2.99609
1127.94	18.5381
1130.83	22.8103
1133.72	34.084
1136.62	35.5615
1139.51	31.9109
1142.4	27.9482
1145.3	27.2983
1148.19	30.0332
1151.08	17.9688
1153.97	15.3877
1156.87	15.1455
1159.76	16.6782
1162.65	20.9849
1165.55	27.3052
1168.44	21.4753
1171.33	18.2192
1174.22	32.0095
1177.12	16.3677
1180.01	15.6431
1182.9	12.6816
1185.79	16.073
1188.69	23.7366
1191.58	18.9197
1194.47	17.3201
1197.37	7.57837
1200.26	12.272
1203.15	18.4023
1206.04	11.3286
1208.94	9.55078
1211.83	8.98901
1214.72	17.915
1217.61	15.9492
1220.51	21.1367
1223.4	7.22852
1226.29	18.0945
1229.18	12.3396
1232.08	24.9348
1234.97	24.977
1237.86	9.8855
1240.76	3.5564
1243.65	2.65723
1246.54	9.1731
1249.43	11.3828
1252.33	11.2805
1255.22	12.8372
1258.11	7.75903
1261	13.6372
1263.9	11.7454
1266.79	10.135
1269.68	11.9446
1272.58	6.65503
1275.47	7.78662
1278.36	8.23242
1281.25	11.3084
1284.15	15.6211
1287.04	25.4558
1289.93	25.0969
1292.82	6.52222
1295.72	4.84912
1298.61	3.98804
1301.5	7.17725
1304.39	3.25879
