Measurement: Raman, 532 nm, unoriented, Raman Data Processed
Mineral: Ullmannite
Rruff sample: R070541
Ideal chemistry: NiSbS
Locality: Oms, Pyrennes Mountains, Spain
Source: James Shigley
Description: Steel gray massive
Raman shift (cm-1)	intensity
151.602	0
154.494	37.3853
157.387	5.58911
160.28	27.686
163.173	32.1565
166.065	43.033
168.958	43.202
171.851	80.3317
174.743	76.4191
177.636	135.858
180.529	198.018
183.421	249.525
186.314	338.285
189.207	361.949
192.1	168.228
194.992	170.22
197.885	94.7303
200.778	64.4632
203.67	73.7275
206.563	37.822
209.456	24.6176
212.348	14.2835
215.241	12.3791
218.134	36.6212
221.026	19.3429
223.919	35.9287
226.812	5.3186
229.705	14.592
232.597	5.79468
235.49	1.24835
238.383	25.8929
241.275	12.3805
244.168	7.10449
247.061	35.6774
249.954	31.0796
252.846	59.9751
255.739	28.7889
258.632	27.4814
261.524	37.3913
264.417	49.096
267.31	29.9649
270.202	40.5477
273.095	103.442
275.988	119.308
278.881	152.541
281.773	213.273
284.666	248.233
287.559	241.475
290.451	143.24
293.344	90.1858
296.237	62.481
299.13	37.2953
302.022	27.4211
304.915	23.8494
307.808	17.0561
310.7	2.75714
313.593	6.9342
316.486	12.4443
319.378	5.58276
322.271	2.92999
325.164	5.86658
328.057	26.0577
330.949	17.7991
333.842	3.07434
336.735	28.2203
339.627	29.822
342.52	0.771729
345.413	25.0721
348.305	8.16895
351.198	36.2981
354.091	1.71753
356.983	23.1872
359.876	38.7843
362.769	12.7378
365.662	29.0539
368.554	1.56329
371.447	33.6175
374.34	20.4686
377.232	26.7767
380.125	38.0789
383.018	19.0802
385.911	25.1854
388.803	29.8803
391.696	38.7814
394.589	5.59778
397.481	12.636
400.374	5.64429
403.267	26.3713
406.159	23.1296
409.052	39.763
411.945	23.2513
414.837	29.5407
417.73	16.7758
420.623	19.9844
423.516	8.60925
426.408	9.16248
429.301	48.9116
432.194	18.5596
435.086	17.7765
437.979	7.56421
440.872	43.0159
443.764	30.7006
446.657	31.3225
449.55	30.1178
452.443	17.1054
455.335	5.07764
458.228	34.0668
461.121	16.3513
464.014	14.7363
466.906	22.0137
469.799	10.1053
472.692	3.32861
475.584	8.06824
478.477	6.9693
481.37	12.8155
484.262	0.306458
487.155	33.843
490.048	24.6015
492.94	25.0342
495.833	27.013
498.726	12.1468
501.619	14.5383
504.511	8.89752
507.404	9.03735
510.297	30.6195
513.189	17.9768
516.082	0.635315
518.975	16.4664
521.867	13.5627
524.76	33.5989
527.653	18.7543
530.546	11.8309
533.438	17.7566
536.331	36.7934
539.224	15.1699
542.116	12.5783
545.009	0.694946
547.902	27.1356
550.794	0.095581
553.687	3.21619
556.58	24.3752
559.473	2.99286
562.365	35.121
565.258	0.420532
568.151	27.4524
571.043	39.4584
573.936	4.50824
576.829	33.0504
579.721	40.9451
582.614	36.8573
585.507	8.36652
588.4	26.6927
591.292	28.1127
594.185	17.9569
597.078	7.69794
599.97	17.0236
602.863	11.181
605.756	21.7639
608.649	15.2283
611.541	27.0151
614.434	28.2686
617.327	29.8708
620.219	20.1494
623.112	23.3967
626.005	0.031128
628.897	23.4627
631.79	0.401794
634.683	11.1709
637.576	5.70386
640.468	19.3967
643.361	20.8733
646.254	15.5729
649.146	21.1522
652.039	35.2165
654.932	24.4418
657.824	16.8395
660.717	38.2504
663.61	30.2833
666.503	40.0292
669.395	25.1603
672.288	17.0141
675.181	11.0189
678.073	5.49939
680.966	22.3279
683.859	4.1073
686.751	29.9374
689.644	29.1085
692.537	20.9582
695.43	1.94177
698.322	12.6016
701.215	31.9887
704.108	19.6099
707	31.9055
709.893	16.2551
712.786	16.6519
715.678	17.8674
718.571	27.2504
721.464	16.605
724.357	9.46838
727.249	20.249
730.142	15.0724
733.035	5.91168
735.927	0.081116
738.82	13.4418
741.713	4.72516
744.606	37.7113
747.498	25.7328
750.391	14.8884
753.284	9.25836
756.176	5.71155
759.069	9.21368
761.962	18.6502
764.854	31.0997
767.747	25.8372
770.64	10.0271
773.533	2.95953
776.425	16.3708
779.318	2.82489
782.211	2.97577
785.103	9.02087
787.996	9.42981
790.889	3.01502
793.781	8.87488
796.674	2.31714
799.567	8.54535
802.46	3.5097
805.352	20.9572
808.245	4.29285
811.138	9.10413
814.03	18.0156
816.923	23.3103
819.816	16.3298
822.708	6.31006
825.601	11.5289
828.494	21.317
831.386	17.0685
834.279	20.6576
837.172	7.55804
840.065	14.7624
842.957	9.09387
845.85	18.587
848.743	24.6193
851.635	1.34015
854.528	15.6725
857.421	23.2343
860.313	23.1138
863.206	22.6465
866.099	6.34967
868.992	18.5621
871.884	11.1792
874.777	18.8231
877.67	16.9082
880.562	5.71783
883.455	25.7369
886.348	12.1977
889.24	34.5078
892.133	15.6367
895.026	2.67462
897.919	17.0157
900.811	1.94019
903.704	7.05633
906.597	15.9081
909.489	19.3455
912.382	2.60754
915.275	39.3976
918.168	14.9539
921.06	37.1163
923.953	14.3048
926.846	20.3686
929.738	15.5119
932.631	5.11865
935.524	16.6858
938.416	16.5528
941.309	4.64752
944.202	15.1744
947.095	1.77124
949.987	27.5858
952.88	11.9001
955.773	26.4879
958.665	22.1252
961.558	10.4141
964.451	22.8676
967.343	12.0112
970.236	19.8615
973.129	36.4871
976.021	28.0693
978.914	8.28375
981.807	1.80023
984.7	21.5913
987.592	13.1231
990.485	27.6026
993.378	1.19122
996.27	21.3632
999.163	27.8294
1002.06	5.59906
1004.95	26.5049
1007.84	22.3981
1010.73	21.0759
1013.63	13.0077
1016.52	40.8362
1019.41	21.6538
1022.3	2.26837
1025.2	23.8338
1028.09	12.0229
1030.98	14.8991
1033.88	13.3633
1036.77	22.4435
1039.66	13.382
1042.55	19.5643
1045.45	23.7645
1048.34	19.7089
1051.23	16.1818
1054.12	16.0549
1057.02	7.29242
1059.91	20.9926
1062.8	2.26703
1065.69	21.8473
1068.59	29.0389
1071.48	27.1261
1074.37	39.6145
1077.27	23.0591
1080.16	17.7753
1083.05	35.717
1085.94	34.8827
1088.84	27.0075
1091.73	10.3169
1094.62	16.8677
1097.52	25.9042
1100.41	25.0675
1103.3	19.2068
1106.19	0.281616
1109.09	22.4086
1111.98	9.5672
1114.87	30.2288
1117.76	7.95172
1120.66	1.96216
1123.55	6.78937
1126.44	7.18109
1129.34	31.1581
1132.23	9.13086
1135.12	18.3182
1138.01	13.2451
1140.91	21.7948
1143.8	0.431763
1146.69	22.3159
1149.58	24.4813
1152.48	26.1078
1155.37	27.0993
1158.26	20.7031
1161.15	14.2379
1164.05	17.9176
1166.94	23.5847
1169.83	16.9673
1172.72	25.8418
1175.62	12.4055
1178.51	17.2887
1181.4	25.9804
1184.3	28.1281
1187.19	29.5144
1190.08	8.21069
1192.97	28.0049
1195.87	18.8111
1198.76	30.9639
1201.65	9.78876
1204.55	25.1148
1207.44	3.25366
1210.33	20.7324
1213.22	19.7258
1216.12	19.4095
1219.01	34.2563
1221.9	0.614746
1224.79	33.9833
1227.69	10.3798
1230.58	9.41589
1233.47	10.9205
1236.37	23.6862
1239.26	33.7289
1242.15	35.576
1245.04	14.7029
1247.94	43.2816
1250.83	25.3786
1253.72	22.6277
1256.61	27.9872
1259.51	35.2381
1262.4	10.1121
1265.29	29.3291
1268.18	18.6693
1271.08	12.874
1273.97	14.8246
1276.86	4.71295
1279.76	23.4501
1282.65	40.6223
1285.54	11.8075
1288.43	9.27124
1291.33	2.95789
