Measurement: Raman, 780 nm, unoriented, Raman Data Processed
Mineral: Uralolite
Rruff sample: R070749
Ideal chemistry: Ca_2_Be_4_(PO_4_)_3_(OH)_3_5H_2_O
Locality: Spodumene prospect (Brandrücken exploration adit), Brandrücken, Moschkogel Mt. - Weinebene area, Koralpe Mts, Carinthia, Austria
Source: Michael Scott
Description: Radiating aggregates of gray-white matted fibers associated with quartz
Raman shift (cm-1)	intensity
142.922	66.9805
145.815	169.848
148.707	185.891
151.6	487.162
154.493	581.598
157.385	677.311
160.278	922.135
163.171	609.805
166.064	329.582
168.956	180.246
171.849	162.529
174.742	46.6895
177.634	55.6367
180.527	36.9062
183.42	8.69531
186.312	48.7051
189.205	92.5391
192.098	70.7519
194.99	339.371
197.883	474.387
200.776	450.949
203.669	373.576
206.561	154.322
209.454	146.603
212.347	84.5527
215.239	104.875
218.132	36.1211
221.025	197.836
223.917	158.705
226.81	38.1562
229.703	128.688
232.596	35.1445
235.488	224.272
238.381	136.344
241.274	111.193
244.166	50.3691
247.059	10.582
249.952	46.2656
252.845	161.471
255.737	232.391
258.63	227.592
261.523	224.322
264.415	443.898
267.308	700.553
270.201	633.494
273.093	741.291
275.986	671.184
278.879	763.982
281.772	828.859
284.664	992.764
287.557	598.646
290.45	472.99
293.342	327.668
296.235	261.91
299.128	392.514
302.02	271.871
304.913	379.197
307.806	384.211
310.699	353.422
313.591	517.754
316.484	390.451
319.377	486.541
322.269	442.945
325.162	321.727
328.055	313.059
330.947	234.143
333.84	127.557
336.733	220.043
339.625	210.935
342.518	138.047
345.411	117.326
348.304	54.502
351.196	147.894
354.089	182.832
356.982	227.033
359.874	229.66
362.767	126.158
365.66	57.75
368.553	40.4785
371.445	37.1855
374.338	104.082
377.231	26.3184
380.123	164.627
383.016	165.172
385.909	141.945
388.801	49.0879
391.694	133.375
394.587	113.703
397.479	4.66016
400.372	269.094
403.265	205.606
406.158	277.148
409.05	336.103
411.943	282.453
414.836	269.852
417.728	25.8633
420.621	19.2598
423.514	48.0898
426.406	137.727
429.299	250.338
432.192	178.107
435.085	284.555
437.977	296.397
440.87	491.019
443.763	463.06
446.655	752.875
449.548	977.606
452.441	905.551
455.334	893.891
458.226	870.037
461.119	628.781
464.012	434.986
466.904	481.875
469.797	332.275
472.69	219.463
475.582	141.244
478.475	320.453
481.368	260.377
484.26	267.58
487.153	314.881
490.046	344.031
492.939	377.367
495.831	244.346
498.724	153.973
501.617	77.8477
504.509	136.074
507.402	109.914
510.295	140.191
513.188	170.42
516.08	180.42
518.973	138.957
521.866	12.0586
524.758	115.305
527.651	47.5254
530.544	24.0332
533.436	80.6777
536.329	76.8223
539.222	146.389
542.115	13.7773
545.007	34.2812
547.9	83.8359
550.793	99.0098
553.685	49.2539
556.578	91.5957
559.471	170.094
562.363	78.0977
565.256	95.291
568.149	113.961
571.042	166.547
573.934	213.31
576.827	324.981
579.72	328.152
582.612	548.592
585.505	573.885
588.398	598.135
591.29	711.467
594.183	666.494
597.076	669.779
599.968	784.641
602.861	874.416
605.754	883.231
608.647	885.443
611.539	1016.19
614.432	983.885
617.325	786.584
620.217	376.207
623.11	409.846
626.003	233.85
628.895	268.443
631.788	138.471
634.681	115.475
637.574	99.7676
640.466	60.5664
643.359	15.168
646.252	139.762
649.144	63.8652
652.037	66.125
654.93	59.3008
657.822	47.1367
660.715	136.596
663.608	132.043
666.501	175.273
669.393	37.8008
672.286	178.717
675.179	192.631
678.071	162.553
680.964	189.609
683.857	146.121
686.75	155.402
689.642	230.935
692.535	183.832
695.428	191.889
698.32	75.1484
701.213	142.723
704.106	189.49
706.998	179.867
709.891	230.486
712.784	301.092
715.677	150.043
718.569	125.625
721.462	29.002
724.355	139.43
727.247	42.8457
730.14	102.58
733.033	54.8848
735.925	81.3262
738.818	55.6016
741.711	85.332
744.604	166.539
747.496	160.836
750.389	92.0566
753.282	167.293
756.174	86.6738
759.067	82.8965
761.96	36.3379
764.852	137.01
767.745	37.416
770.638	1.95312
773.53	30.1504
776.423	62.8398
779.316	16.4531
782.209	86.2891
785.101	121.867
787.994	120.207
790.887	42.6914
793.779	66.0898
796.672	0.259766
799.565	7.62891
802.457	53.9824
805.35	28.2266
808.243	70.0449
811.136	81.7676
814.028	137.398
816.921	73.6016
819.814	77.9414
822.706	74.3828
825.599	17.668
828.492	37.1895
831.385	45.957
834.277	53.9082
837.17	132.58
840.063	98.3359
842.955	87.584
845.848	40.3555
848.741	170.586
851.633	115.061
854.526	129.935
857.419	135.232
860.312	229.85
863.204	195.893
866.097	137.773
868.99	184.027
871.882	141.361
874.775	268.197
877.668	140.16
880.56	76.5078
883.453	76.4961
886.346	115.221
889.239	111.912
892.131	208.756
895.024	62.1777
897.917	32.8672
900.809	107.766
903.702	63.002
906.595	61.8379
909.487	19.6426
912.38	111.644
915.273	10.5508
918.165	6.7168
921.058	40.9258
923.951	32.3398
926.844	61.3691
929.736	88.0312
932.629	23.3691
935.522	27.7852
938.414	132.945
941.307	15.6582
944.2	0.947266
947.092	62.6719
949.985	34.7012
952.878	63.6602
955.771	183.045
958.663	80.7969
961.556	107.629
964.449	42.375
967.341	48.4355
970.234	103.453
973.127	116.988
976.019	167.986
978.912	157.555
981.805	224.08
984.698	355.144
987.59	342.371
990.483	645.894
993.376	822.514
996.268	1109.66
999.161	1319.42
1002.05	1494.59
1004.95	1555.94
1007.84	1598.89
1010.73	1411.35
1013.62	1160.81
1016.52	877.438
1019.41	631.981
1022.3	450.486
1025.19	500.486
1028.09	569.473
1030.98	799.711
1033.87	1023.32
1036.77	1031.75
1039.66	902.289
1042.55	856.816
1045.44	800.168
1048.34	572.354
1051.23	510.047
1054.12	354.84
1057.02	274.185
1059.91	192.67
1062.8	126.697
1065.69	45.1426
1068.59	79.5644
1071.48	116.635
1074.37	211.438
1077.26	91.5547
1080.16	28.166
1083.05	49.0625
1085.94	1.5
1088.84	12.2383
1091.73	65.0371
1094.62	37.4824
1097.51	5.83398
1100.41	48.0107
1103.3	28.585
1106.19	44.7197
1109.08	22.1289
1111.98	32.669
1114.87	105.631
1117.76	200.546
1120.65	302.93
1123.55	282.892
1126.44	257.435
1129.33	337.706
1132.22	294.362
1135.12	255.72
1138.01	187.372
1140.9	82.6016
1143.8	88.8838
1146.69	54.669
1149.58	39.7725
1152.47	56.2871
1155.37	142.189
1158.26	131.252
1161.15	87.959
1164.05	185.743
1166.94	81.1709
1169.83	96.4981
1172.72	213.684
1175.62	241.205
1178.51	156.141
1181.4	128.871
1184.29	125.472
1187.19	199.731
1190.08	77.9541
1192.97	45.0518
1195.87	104.841
1198.76	126.228
1201.65	54.956
1204.54	56.6182
1207.43	60.7168
1210.33	10.9815
1213.22	104.991
1216.11	29.9326
1219.01	13.1787
1221.9	93.6182
1224.79	55.7324
1227.68	124.872
1230.58	27.0625
1233.47	152.298
1236.36	191.338
1239.26	108.945
1242.15	158.637
1245.04	72.1865
1247.93	123.615
1250.83	87.9219
1253.72	97.4541
1256.61	25.9854
1259.5	0
