Measurement: Raman, 532 nm, unoriented, Raman Data Processed
Mineral: Uralolite
Rruff sample: R070749
Ideal chemistry: Ca_2_Be_4_(PO_4_)_3_(OH)_3_5H_2_O
Locality: Spodumene prospect (Brandrücken exploration adit), Brandrücken, Moschkogel Mt. - Weinebene area, Koralpe Mts, Carinthia, Austria
Source: Michael Scott
Description: Radiating aggregates of gray-white matted fibers associated with quartz
Raman shift (cm-1)	intensity
140.889	0
143.782	3.33008
146.675	13.7656
149.567	376.611
152.46	664.269
155.353	928.262
158.245	893.523
161.138	757.061
164.031	490.859
166.924	435.598
169.816	247.469
172.709	432.943
175.602	459.746
178.494	423.69
181.387	349.295
184.28	365.777
187.172	448.293
190.065	423.969
192.958	484.315
195.851	426.508
198.743	310.785
201.636	430.135
204.529	423.935
207.421	385.523
210.314	333.113
213.207	26.252
216.099	93.3867
218.992	5.10938
221.885	30.5215
224.778	182.344
227.67	229.135
230.563	90.2266
233.456	239.588
236.348	134.557
239.241	232.721
242.134	20.4609
245.026	50.0859
247.919	59.3555
250.812	3.64062
253.704	150.049
256.597	49.584
259.49	226.893
262.383	147.131
265.275	371.008
268.168	448.924
271.061	594.482
273.953	428.299
276.846	406.434
279.739	206.045
282.632	242.318
285.524	241.203
288.417	350.242
291.31	215.537
294.202	107.119
297.095	102.246
299.988	0.890625
302.88	205.103
305.773	100.367
308.666	143.727
311.558	21.6641
314.451	28.5234
317.344	79.7539
320.237	78.2422
323.129	106.217
326.022	129.586
328.915	219.486
331.807	352.832
334.7	395.049
337.593	206.268
340.486	207.69
343.378	68.3027
346.271	8.40039
349.164	180.43
352.056	89.9531
354.949	186.357
357.842	82.3769
360.734	123.914
363.627	114.232
366.52	75.5996
369.413	160.147
372.305	123.361
375.198	182.19
378.091	204.891
380.983	276.484
383.876	450.816
386.769	265.356
389.661	252.664
392.554	44.4648
395.447	170.441
398.339	112.555
401.232	202.32
404.125	345.422
407.018	296.723
409.91	351.644
412.803	339.477
415.696	348.289
418.588	397.465
421.481	175.519
424.374	87.7188
427.267	73.3203
430.159	275.344
433.052	122.539
435.945	161.223
438.837	411.543
441.73	379.465
444.623	376.832
447.515	449.785
450.408	507.797
453.301	455.223
456.193	586.711
459.086	390.402
461.979	315.934
464.872	107.773
467.764	335.359
470.657	267.586
473.55	328.219
476.442	225.281
479.335	230.191
482.228	418.953
485.12	440.996
488.013	482.031
490.906	419.176
493.799	370.328
496.691	351.453
499.584	364.816
502.477	291.074
505.369	321.363
508.262	225.906
511.155	233.746
514.047	355.41
516.94	263.57
519.833	139.391
522.726	4.82812
525.618	26.3594
528.511	109.879
531.404	19.0312
534.296	115.043
537.189	127.988
540.082	181.731
542.974	87.8047
545.867	102.293
548.76	41.6758
551.653	135.269
554.545	146.586
557.438	82.7969
560.331	109.5
563.223	299.535
566.116	422.031
569.009	15.957
571.901	143.312
574.794	327.707
577.687	295.922
580.58	388.234
583.472	402.133
586.365	392.637
589.258	408.293
592.15	606.07
595.043	758.684
597.936	610.734
600.828	708.039
603.721	475.746
606.614	342.887
609.506	418.445
612.399	479.465
615.292	506.148
618.185	397.004
621.077	396.516
623.97	185.262
626.863	22.8633
629.755	52.4648
632.648	9.05469
635.541	10.8633
638.433	47.2266
641.326	70.9844
644.219	80.3672
647.112	158.602
650.004	83.2773
652.897	77.8047
655.79	185.371
658.682	122.207
661.575	220.164
664.468	233.676
667.361	99.5039
670.253	295.34
673.146	116.371
676.039	159.551
678.931	187.168
681.824	338.254
684.717	180.496
687.609	195.957
690.502	34.3477
693.395	185.777
696.288	232.277
699.18	268.648
702.073	323.898
704.966	347.621
707.858	217.344
710.751	184.621
713.644	347.176
716.536	333.606
719.429	214.262
722.322	274.828
725.215	206.926
728.107	230.402
731	191.867
733.893	153.707
736.785	50.9531
739.678	86.0195
742.571	46.4141
745.463	249.555
748.356	289.621
751.249	288.879
754.141	242.191
757.034	175.023
759.927	182.07
762.82	187.988
765.712	231.75
768.605	357.668
771.498	381.856
774.39	297.875
777.283	216.043
780.176	418.414
783.068	296.836
785.961	399.977
788.854	317.027
791.747	162.539
794.639	211.996
797.532	243.773
800.425	216.41
803.317	254.68
806.21	150.734
809.103	249.066
811.995	320.762
814.888	171.934
817.781	41.2344
820.674	150.66
823.566	183.203
826.459	317.746
829.352	274.656
832.244	167.707
835.137	158.699
838.03	40.5039
840.922	15.1992
843.815	254.766
846.708	298.125
849.601	165.602
852.493	323.34
855.386	140.086
858.279	301.988
861.171	433.75
864.064	248.922
866.957	208.082
869.849	83.1055
872.742	154.887
875.635	116.332
878.528	262.691
881.42	191.652
884.313	310.746
887.206	93.75
890.098	210.723
892.991	0.410156
895.884	212.742
898.776	151.699
901.669	35.332
904.562	11.8281
907.455	8.27734
910.347	101.043
913.24	91.4258
916.133	10.6328
919.025	136.566
921.918	188.894
924.811	126.098
927.703	47.4258
930.596	32.1016
933.489	31.4023
936.381	9.86719
939.274	170.262
942.167	29.1055
945.06	161.594
947.952	140.41
950.845	139.258
953.738	200.039
956.63	142.965
959.523	72.0703
962.416	174.871
965.308	144.387
968.201	313.648
971.094	378.555
973.987	236.496
976.879	153.91
979.772	84.0156
982.665	385.293
985.557	571.324
988.45	616.238
991.343	557.984
994.236	657.867
997.128	1087.44
1000.02	1662.79
1002.91	1664.63
1005.81	1623.13
1008.7	1505.97
1011.59	1221.32
1014.48	1102.52
1017.38	876.754
1020.27	653.832
1023.16	656.719
1026.06	534.676
1028.95	870.66
1031.84	1020.12
1034.73	1256.44
1037.63	1038.34
1040.52	1228.62
1043.41	870.789
1046.3	608.285
1049.2	382.949
1052.09	456.66
1054.98	198.398
1057.88	17.4922
1060.77	125.445
1063.66	98.7812
1066.55	26.9688
1069.45	158.332
1072.34	61.8047
1075.23	156.453
1078.12	188.617
1081.02	224.844
1083.91	25.2812
1086.8	7.99219
1089.69	103.277
1092.59	68.3398
1095.48	80.9922
1098.37	184.363
1101.27	173.312
1104.16	279.141
1107.05	274.629
1109.94	520.07
1112.84	672.602
1115.73	753.176
1118.62	553.949
1121.51	619.785
1124.41	663.352
1127.3	750.484
1130.19	540.805
1133.09	619.465
1135.98	480.731
1138.87	333.461
1141.76	103.434
1144.66	249.785
1147.55	398.133
1150.44	349.438
1153.33	295.496
1156.23	140.789
1159.12	151.316
1162.01	204.117
1164.9	22.2461
1167.8	144.844
1170.69	66.0352
1173.58	123.805
1176.48	48.9688
1179.37	116.578
1182.26	96.9688
1185.15	179.57
1188.05	432.262
1190.94	373.367
1193.83	124.008
1196.72	146.828
1199.62	155.121
1202.51	59.8047
1205.4	8.20703
1208.3	279.883
1211.19	252.398
1214.08	316.402
1216.97	179.719
1219.87	216.723
1222.76	213.223
1225.65	68.2383
1228.54	182.691
1231.44	1.04688
1234.33	56.3125
1237.22	35.1055
1240.12	210.227
1243.01	202.93
1245.9	118.297
1248.79	447.691
1251.69	347.32
1254.58	296.965
1257.47	307.938
1260.36	273.633
1263.26	86.4102
1266.15	54.1836
1269.04	117.266
1271.93	27.6289
1274.83	45.5352
1277.72	235.203
1280.61	103.996
1283.51	0
