Measurement: Raman, 532 nm, unoriented, Raman Data Processed
Mineral: Uranophane-beta
Rruff sample: R060962
Ideal chemistry: Ca(U^6+^O_2_)_2_(SiO_3_OH)_2_5H_2_O
Locality: Teofilo Otoni, Minas Gerais, Brazil
Source: Michael Scott
Description: Yellow elongated prismatic crystals in aggregates with muscovite on albite
Raman shift (cm-1)	intensity
203.001	0
205.893	389.918
208.786	361.469
211.679	40.7812
214.571	107.852
217.464	119.656
220.357	408.352
223.25	323.699
226.142	298.828
229.035	312.215
231.928	385.043
234.82	419.742
237.713	433.422
240.606	471.102
243.498	656.656
246.391	868.773
249.284	882.695
252.177	611.305
255.069	535.43
257.962	595.328
260.855	838.812
263.747	1178.73
266.64	1238.52
269.533	1053.1
272.425	1043.25
275.318	1140.32
278.211	842.273
281.103	1102.11
283.996	839.844
286.889	458.82
289.782	573.289
292.674	384.555
295.567	60.1953
298.46	20.4453
301.352	460.453
304.245	1061.41
307.138	1257.17
310.031	1002.73
312.923	881.789
315.816	352.477
318.709	515.672
321.601	31.3594
324.494	477.492
327.387	618.906
330.279	583.672
333.172	500.875
336.065	225.758
338.957	602.625
341.85	313.953
344.743	215.531
347.635	244.133
350.528	425.453
353.421	685.336
356.314	314.016
359.206	28.8906
362.099	77.2734
364.992	74.125
367.884	96.2812
370.777	98.9844
373.67	319.789
376.562	348.852
379.455	514.672
382.348	294.375
385.241	675.461
388.133	1205.22
391.026	1078.3
393.919	980.172
396.811	742.969
399.704	558.234
402.597	549.508
405.49	403.766
408.382	366.281
411.275	484.648
414.168	599.312
417.06	738.641
419.953	710.883
422.846	213.531
425.738	223.344
428.631	9.27344
431.524	149.516
434.416	263.68
437.309	310.312
440.202	510.852
443.094	381.742
445.987	517.688
448.88	127.969
451.773	381.938
454.665	554.609
457.558	56.6016
460.451	326.219
463.343	247.422
466.236	420.453
469.129	727.461
472.022	736.773
474.914	811.594
477.807	139.922
480.7	247.594
483.592	743.969
486.485	907.344
489.378	752.406
492.27	240.469
495.163	186.25
498.056	84.9453
500.949	178.445
503.841	50.0547
506.734	63.3828
509.627	463.078
512.519	141.82
515.412	467.781
518.305	710.477
521.197	756.195
524.09	765.328
526.983	887.258
529.875	726.07
532.768	842.695
535.661	423.469
538.554	421.227
541.446	737.844
544.339	741.438
547.232	795.117
550.124	620.875
553.017	275.875
555.91	153.039
558.802	24.2969
561.695	210.984
564.588	549.578
567.481	358.234
570.373	468.852
573.266	438.953
576.159	285.352
579.051	13.3203
581.944	189.719
584.837	243.266
587.729	273.273
590.622	264.109
593.515	142.781
596.408	274.281
599.3	543.445
602.193	829.32
605.086	1259.44
607.978	1866.73
610.871	2102.68
613.764	2004.75
616.656	2322.65
619.549	2528.76
622.442	2870.26
625.335	2821.95
628.227	2645.67
631.12	2488.88
634.013	1792.98
636.905	1650.91
639.798	1611.62
642.691	1458.41
645.583	1516.03
648.476	1884.43
651.369	2127.15
654.261	1871.12
657.154	1705.19
660.047	1517.16
662.94	1156.82
665.832	1183.12
668.725	875.227
671.618	1057.21
674.51	502.742
677.403	55.9219
680.296	102.875
683.188	344.602
686.081	647.539
688.974	373.914
691.866	764.367
694.759	641.953
697.652	267.438
700.545	145.516
703.437	133.047
706.33	108.625
709.223	204.32
712.115	236.469
715.008	147.555
717.901	278.039
720.793	306.961
723.686	423.461
726.579	388.703
729.472	596.352
732.364	305.867
735.257	399.367
738.15	519.578
741.042	329.375
743.935	829.133
746.828	1497.67
749.721	1976.94
752.613	1035.37
755.506	1632.57
758.399	1956.41
761.291	2009.15
764.184	2202.82
767.077	2882.38
769.969	3792.89
772.862	4304.73
775.755	4736.81
778.648	5283.38
781.54	6651.63
784.433	7976.47
787.326	10375.5
790.218	12831.1
793.111	14982
796.004	14492.9
798.896	12278.1
801.789	9278.29
804.682	7311.62
807.574	5818.81
810.467	4878.28
813.36	4486.99
816.253	4305.77
819.145	4082.04
822.038	4165.69
824.931	4064.49
827.823	4419.03
830.716	4464.19
833.609	3680.62
836.501	3528.95
839.394	3336.06
842.287	2831.95
845.179	2535.12
848.072	1862.6
850.965	980.43
853.858	503.094
856.75	287.836
859.643	684.234
862.536	427.758
865.428	104.852
868.321	49.0156
871.214	514.875
874.106	446.883
876.999	47.4688
879.892	229.07
882.784	183.734
885.677	239.367
888.57	498.125
891.463	502.805
894.355	1075.73
897.248	1138.84
900.141	605.883
903.033	113.883
905.926	114.289
908.819	8.47656
911.712	152.172
914.604	304.984
917.497	18.0859
920.39	149.516
923.282	999.148
926.175	1691.74
929.068	1826.16
931.96	2216.02
934.853	2659.23
937.746	3399.16
940.639	3862.94
943.531	3631.81
946.424	3344.99
949.317	2832.93
952.209	2456.3
955.102	1980.23
957.995	1896.16
960.887	1518.27
963.78	1553.52
966.673	1102.3
969.566	932.984
972.458	978.516
975.351	501.617
978.244	1030.97
981.136	796.266
984.029	605.289
986.922	296.828
989.814	76.6641
992.707	53.4297
995.6	35.9141
998.492	230.641
1001.38	576.18
1004.28	522.984
1007.17	323.328
1010.06	19.4453
1012.96	163.023
1015.85	109.445
1018.74	142.883
1021.63	164.469
1024.53	501.445
1027.42	646.781
1030.31	661.883
1033.2	495.609
1036.1	300.297
1038.99	672.367
1041.88	656.57
1044.78	380.742
1047.67	366.016
1050.56	60.9297
1053.45	613.664
1056.35	881.57
1059.24	740.461
1062.13	433.227
1065.03	75.1328
1067.92	214.594
1070.81	40.5078
1073.7	434.148
1076.6	277.867
1079.49	145.594
1082.38	117.727
1085.27	269.945
1088.17	435.867
1091.06	245.57
1093.95	859.062
1096.84	787.211
1099.74	706.453
1102.63	950.516
1105.52	929.836
1108.41	758.664
1111.31	629.727
1114.2	624.883
1117.09	391.031
1119.99	481.625
1122.88	125.742
1125.77	308.078
1128.66	988.43
1131.56	1261.43
1134.45	1307.88
1137.34	899.703
1140.23	765.289
1143.13	756.57
1146.02	337.859
1148.91	352.086
1151.81	354
1154.7	948.961
1157.59	727.656
1160.48	726.938
1163.38	711.547
1166.27	224.672
1169.16	194.141
1172.05	500.203
1174.95	1015.4
1177.84	926.406
1180.73	942.547
1183.62	1200.98
1186.52	852.117
1189.41	1042.02
1192.3	158.266
1195.2	513.75
1198.09	487.312
1200.98	263.586
1203.87	224.117
1206.77	646.453
1209.66	754.016
1212.55	1008.38
1215.44	631.5
1218.34	311.445
1221.23	508.312
1224.12	377.609
1227.02	600.383
1229.91	596.148
1232.8	514.508
1235.69	1072.58
1238.59	922.742
1241.48	750.742
1244.37	753.539
1247.26	1133.04
1250.16	981.664
1253.05	501.789
1255.94	810.43
1258.84	778.844
1261.73	449.883
1264.62	237.445
1267.51	124.344
1270.41	974.07
1273.3	886.164
1276.19	448.578
1279.08	13.1562
