Measurement: Raman, 532 nm, unoriented, Raman Data Processed
Mineral: Uranophane-beta
Rruff sample: R120075
Ideal chemistry: Ca(U^6+^O_2_)_2_(SiO_3_OH)_2_5H_2_O
Locality: Capoeira pegmatite,  Parelhas, Borborema mineral province, Rio Grande do Norte, Brazil
Source: Donald Doell
Description: Yellow prismatic crystals on albite, associated with a yellow fibrous unknown mineral
Raman shift (cm-1)	intensity
203.79	0
206.682	171.438
209.575	435.045
212.468	541.008
215.36	605.199
218.253	634.25
221.146	595.156
224.038	606.461
226.931	544.953
229.824	556.553
232.717	482.691
235.609	397.588
238.502	248.217
241.395	97.0137
244.287	47.6074
247.18	67.4199
250.073	39.1211
252.965	25.2031
255.858	16.8457
258.751	16.9844
261.644	4.99023
264.536	27.9805
267.429	37.1855
270.322	92.6231
273.214	135.506
276.107	210.467
279	200.555
281.892	175.652
284.785	46.6074
287.678	2.47461
290.571	6.81641
293.463	23.6953
296.356	101.098
299.249	101.205
302.141	102.328
305.034	160.99
307.927	148.541
310.82	163.953
313.712	111.65
316.605	111.67
319.498	120.953
322.39	83.9629
325.283	38.3477
328.176	5.23047
331.068	23.1543
333.961	91.7988
336.854	126.998
339.747	137.512
342.639	46.4199
345.532	7.51758
348.425	3.94922
351.317	13.1172
354.21	59.4824
357.103	124.436
359.995	137.842
362.888	83.1641
365.781	55.166
368.673	161.205
371.566	149.381
374.459	188.096
377.352	105.316
380.244	142.902
383.137	188.578
386.03	236.127
388.922	278.791
391.815	254.34
394.708	197.299
397.601	190.559
400.493	204.055
403.386	199.953
406.279	232.537
409.171	187.322
412.064	234.941
414.957	189.992
417.849	110.375
420.742	1.93945
423.635	5.9375
426.527	46.3848
429.42	64.9805
432.313	60.6133
435.206	5.14648
438.098	27.8535
440.991	5.85938
443.884	63.4766
446.776	0.091797
449.669	116.227
452.562	42.1191
455.454	16.998
458.347	79.4648
461.24	143.385
464.133	174.455
467.025	71.9453
469.918	101.916
472.811	154.881
475.703	171.496
478.596	146.519
481.489	176.363
484.382	145.348
487.274	86.3594
490.167	64.9922
493.06	81.8906
495.952	131.117
498.845	180.328
501.738	89.7617
504.63	4.69141
507.523	1.25391
510.416	63.8594
513.308	113.707
516.201	64.0156
519.094	21.957
521.987	49.7891
524.879	195.664
527.772	353.769
530.665	289.988
533.557	312.199
536.45	266.211
539.343	352.508
542.236	408.031
545.128	347.914
548.021	378.777
550.914	387.43
553.806	377.742
556.699	263.871
559.592	246.606
562.484	171.102
565.377	180.797
568.27	129.856
571.163	94.1172
574.055	74.8477
576.948	119.039
579.841	202.695
582.733	217.148
585.626	134.613
588.519	190.156
591.411	246.324
594.304	250.863
597.197	221.426
600.09	151.465
602.982	88.5078
605.875	66.3477
608.768	128.262
611.66	107.516
614.553	120.644
617.446	142.156
620.338	61.5703
623.231	43.5781
626.124	24.418
629.016	75.0273
631.909	9.64453
634.802	63.043
637.695	96.4844
640.587	5.91797
643.48	18.1758
646.373	41.0977
649.265	15.0547
652.158	50.5312
655.051	155.18
657.943	116.316
660.836	111.051
663.729	124.289
666.622	3.17188
669.514	63.1016
672.407	2.14453
675.3	46.4531
678.192	95.1094
681.085	148.133
683.978	177.957
686.87	116.231
689.763	172.383
692.656	183.023
695.549	149.461
698.441	175.309
701.334	48.0703
704.227	7.73828
707.119	26.3438
710.012	93.5234
712.905	148.16
715.798	17.9141
718.69	59.1172
721.583	61.5195
724.476	33.8008
727.368	136.91
730.261	134.602
733.154	124
736.046	95.918
738.939	80.9766
741.832	16.9609
744.725	84.5117
747.617	113.328
750.51	269.367
753.403	478.168
756.295	619.523
759.188	679.848
762.081	787.277
764.973	1058.09
767.866	1328.85
770.759	1564.08
773.652	1933.36
776.544	2239.94
779.437	2731.9
782.33	3382.88
785.222	4280.64
788.115	5519.54
791.008	6975.77
793.9	7876.33
796.793	7336.44
799.686	5658.38
802.578	3871.49
805.471	2522.19
808.364	1710.11
811.257	1067.29
814.149	815.555
817.042	599.695
819.935	522.547
822.827	406.141
825.72	258.852
828.613	149.098
831.505	163.812
834.398	115.621
837.291	79.8047
840.184	91.625
843.076	144.938
845.969	137.859
848.862	135.484
851.754	35.6953
854.647	50.1523
857.54	112.504
860.433	131.301
863.325	45.1406
866.218	9.52344
869.111	73.5547
872.003	4.85547
874.896	75.8164
877.789	28.9648
880.681	61.1992
883.574	7.75391
886.467	75.6914
889.36	205.062
892.252	111.367
895.145	48.2148
898.038	3.90625
900.93	4.64062
903.823	60.582
906.716	146.688
909.608	221.481
912.501	170.625
915.394	240.664
918.287	291.699
921.179	326.488
924.072	287.051
926.965	412.75
929.857	418.703
932.75	468.723
935.643	509.688
938.535	710.019
941.428	878.519
944.321	955.055
947.213	931.461
950.106	756.57
952.999	681.746
955.892	597.652
958.784	497.359
961.677	410.734
964.57	490.492
967.462	465.547
970.355	447.941
973.248	351.543
976.14	278.902
979.033	317.816
981.926	251.219
984.819	144.5
987.711	92.9883
990.604	164.785
993.497	124.844
996.389	77.6445
999.282	15.3398
1002.17	21.7383
1005.07	41.1562
1007.96	65.5977
1010.85	52.3633
1013.75	7.07422
1016.64	15.9258
1019.53	17.0352
1022.42	173.035
1025.32	27.2227
1028.21	94.1719
1031.1	86.1484
1033.99	143.258
1036.89	185.266
1039.78	104.668
1042.67	89.8359
1045.57	15.707
1048.46	114.828
1051.35	167.359
1054.24	214.164
1057.14	246.984
1060.03	179.207
1062.92	195.441
1065.81	179.461
1068.71	124.586
1071.6	98.5703
1074.49	31.3242
1077.38	25.9102
1080.28	38.543
1083.17	44.5352
1086.06	26.7188
1088.96	17.3125
1091.85	8.22266
1094.74	47.8789
1097.63	115.844
1100.53	178.231
1103.42	41.2969
1106.31	120.574
1109.2	113.875
1112.1	207.941
1114.99	201.438
1117.88	115.473
1120.78	121.422
1123.67	181.027
1126.56	122.269
1129.45	57.1523
1132.35	32.4453
1135.24	55.3672
1138.13	136.297
1141.02	79.0664
1143.92	91.1133
1146.81	142.973
1149.7	162.109
1152.6	171.125
1155.49	135.551
1158.38	51.1992
1161.27	39.9258
1164.17	161.602
1167.06	82.2188
1169.95	53.0742
1172.84	76.4297
1175.74	106.117
1178.63	188.019
1181.52	178.289
1184.41	153.949
1187.31	217.34
1190.2	135.656
1193.09	163.461
1195.99	109.281
1198.88	130.129
1201.77	131.328
1204.66	192.363
1207.56	249.824
1210.45	290.144
1213.34	291.277
1216.23	180.547
1219.13	88.8945
1222.02	161.617
1224.91	165.387
1227.81	140.141
1230.7	112.133
1233.59	89.1914
1236.48	53.5
1239.38	51.9531
1242.27	122.316
1245.16	149.406
1248.05	107.289
1250.95	37.1562
1253.84	131.453
1256.73	154.566
1259.62	170.887
1262.52	197.207
1265.41	187.902
1268.3	132.641
1271.2	111.805
1274.09	115.504
1276.98	63.9688
1279.87	68.7852
1282.77	16.5977
1285.66	3.90625
1288.55	82.2695
1291.44	79.8438
1294.34	79.0508
1297.23	101.269
1300.12	121.461
1303.02	0
