Measurement: Raman, 514 nm, unoriented, Raman Data Processed
Mineral: Uranophane-alpha
Rruff sample: R050380
Ideal chemistry: Ca(U^6+^O_2_)_2_(SiO_3_OH)_2_5H_2_O
Locality: Grafton County, New Hampshire, USA
Source: University of Arizona Mineral Museum
Description: Orange massive coating
Measured chemistry: (Ca_0.97_Pb_0.03_)(U_1.00_O_2_)_2_(Si_1.00_O_3_OH)_2_Â·5H_2_O
Raman shift (cm-1)	intensity
123.981	0
128.146	2.895
132.309	248.387
136.47	72.295
140.63	447.434
144.787	340.059
148.942	304.285
153.096	479.541
157.247	511.117
161.396	538.881
165.544	638.037
169.689	317.861
173.833	529.611
177.974	609.836
182.114	549.277
186.251	822.789
190.387	1070.25
194.52	984.473
198.652	1637.31
202.782	1824.74
206.909	1757.65
211.035	1636.05
215.159	1621.71
219.281	1233.89
223.4	1018.71
227.518	770.211
231.634	863.52
235.748	738.787
239.86	643.082
243.97	750.281
248.079	886.645
252.185	553.789
256.289	626.447
260.391	632.564
264.492	1464.16
268.59	615.668
272.687	1016.81
276.781	993.439
280.874	1122.88
284.964	916.752
289.053	994.273
293.14	1130.06
297.225	1148.51
301.308	1219.99
305.389	944.436
309.468	780.158
313.545	977.92
317.62	827.455
321.693	710.699
325.765	887.539
329.834	737.328
333.902	729.396
337.967	550.664
342.031	440.383
346.093	260.359
350.153	518.607
354.21	335.135
358.267	563.156
362.321	402.162
366.373	373.566
370.423	581.789
374.471	796.637
378.518	311.043
382.563	544.498
386.605	801.014
390.646	522.463
394.685	680.396
398.722	828.266
402.757	919.822
406.79	543.938
410.821	679.053
414.851	459.84
418.878	383.203
422.904	465.971
426.927	707.443
430.949	228.641
434.969	469.145
438.987	226.783
443.003	397.77
447.018	391.066
451.03	205.262
455.041	164.344
459.049	306.027
463.056	589.035
467.061	533.879
471.064	213.361
475.065	467.938
479.064	313.713
483.062	235.615
487.057	193.799
491.051	141.277
495.043	32.971
499.032	401.398
503.02	114.242
507.007	8.596
510.991	330.939
514.973	0.48
518.954	131.541
522.933	68.654
526.91	271.139
530.885	76.859
534.858	134.961
538.829	344.963
542.799	8.035
546.766	185.309
550.732	179.111
554.696	57.35
558.658	35.965
562.618	62.045
566.576	55.967
570.533	209.25
574.488	5.846
578.44	229.424
582.391	347.865
586.341	222.211
590.288	70.635
594.233	83.17
598.177	17.967
602.119	68.92
606.059	68.652
609.997	24.756
613.933	223.309
617.868	116.264
621.801	333.537
625.731	71.053
629.66	33.486
633.588	236.293
637.513	49.52
641.437	300.973
645.358	164.836
649.278	170.543
653.196	244.484
657.113	229.379
661.027	299.707
664.94	62.295
668.851	425.811
672.76	560.371
676.667	342.373
680.572	196.84
684.476	286.268
688.378	416.859
692.278	252.246
696.176	476.756
700.072	428.311
703.967	414.357
707.86	185.934
711.751	756.398
715.64	365.18
719.527	579.199
723.413	458.234
727.297	301.422
731.179	656.812
735.059	573.508
738.937	970.441
742.814	914.848
746.689	757.25
750.562	1198.62
754.433	1157.9
758.303	1026.06
762.17	1648.16
766.036	2007.21
769.901	2379.88
773.763	2521.58
777.624	3423.31
781.482	4505.21
785.339	6124.46
789.195	7562.56
793.048	9349.23
796.9	10427.2
800.75	9921.12
804.598	7799.77
808.445	6346.09
812.289	4624.4
816.132	3477.53
819.973	2773.64
823.813	2222.23
827.65	1683.23
831.486	1219.72
835.32	1123.69
839.152	1156.38
842.983	805.594
846.812	732.812
850.639	774.805
854.464	638.148
858.288	219.941
862.11	104.105
865.93	322.652
869.748	37.273
873.564	309.266
877.379	384.516
881.192	242.328
885.004	215.621
888.813	250.562
892.621	386.234
896.427	292.523
900.232	212.305
904.034	152.719
907.835	374.625
911.634	341.094
915.432	234.184
919.227	333.816
923.021	583.957
926.813	436.551
930.604	722.68
934.393	971.391
938.18	927.656
941.965	1056.39
945.749	1544.61
949.53	1655.26
953.311	1470.41
957.089	2372.36
960.866	2432.05
964.641	2758.12
968.414	2332.77
972.185	1955.76
975.955	1464.09
979.723	1239.98
983.49	613.02
987.254	557.785
991.017	815.332
994.779	757.16
998.538	383.395
1002.3	644.02
1006.05	753.742
1009.81	655.824
1013.56	515.598
1017.31	662.93
1021.06	636.367
1024.81	409.328
1028.55	797.707
1032.3	564.652
1036.04	566.527
1039.78	903.469
1043.52	650.484
1047.26	315.789
1050.99	851.016
1054.73	296.059
1058.46	494.586
1062.19	454.883
1065.92	292.469
1069.65	390.035
1073.37	481.625
1077.1	140.359
1080.82	355.676
1084.54	235.383
1088.26	192.766
1091.97	263.328
1095.69	86.285
1099.4	311.141
1103.12	49.469
1106.83	396.879
1110.54	305.676
1114.24	58.375
1117.95	336.984
1121.65	200.004
1125.35	98.703
1129.06	54.672
1132.75	126.762
1136.45	271.844
1140.15	230.598
1143.84	169.012
1147.53	162.648
1151.22	81.062
1154.91	287.059
1158.6	223.047
1162.28	61.164
1165.97	181.441
1169.65	288.258
1173.33	33.625
1177.01	149.746
1180.69	93.879
1184.36	258.207
1188.04	66.566
1191.71	630.961
1195.38	369.09
1199.05	545.039
1202.71	26.039
1206.38	579.832
1210.04	470.668
1213.71	290.5
1217.37	416.41
1221.03	501.746
1224.68	919.148
1228.34	804.961
1231.99	355.547
1235.65	199.035
1239.3	506.66
1242.95	529.367
1246.59	744.785
1250.24	254.441
1253.88	425.125
1257.53	408.145
1261.17	373.441
1264.81	496.184
1268.45	346.969
1272.08	31.508
1275.72	154.5
1279.35	272.629
1282.98	258.363
1286.61	317.891
1290.24	509.73
1293.87	496.785
1297.49	383.344
1301.11	331.004
1304.73	306.922
1308.36	171.184
1311.97	377.977
1315.59	364.707
1319.2	489.328
1322.82	553.898
