Measurement: Raman, 785 nm, unoriented, Raman Data Processed
Mineral: Uranophane-alpha
Rruff sample: R070038
Ideal chemistry: Ca(U^6+^O_2_)_2_(SiO_3_OH)_2_5H_2_O
Locality: Kyzulsai Mo-U deposit, south Kazakhstan
Source: Michael Scott
Description: Lemon-yellow granular coating
Raman shift (cm-1)	intensity
175.307	0
178.2	193.57
181.092	520.312
183.985	1200.16
186.878	1715.32
189.77	2103.03
192.663	2183.08
195.556	2370.6
198.448	2322.66
201.341	2194.13
204.234	2035.75
207.126	1775.14
210.019	1717.35
212.912	1414.6
215.805	1450.04
218.697	1542.66
221.59	1546.36
224.483	1547.55
227.375	1318.84
230.268	1383.34
233.161	1330.54
236.054	1403.08
238.946	1511.06
241.839	1494.5
244.732	1686.73
247.624	1562.22
250.517	1427.12
253.41	1185.8
256.302	1108.12
259.195	1055.73
262.088	1064.43
264.981	956.098
267.873	1029.25
270.766	896.535
273.659	933.516
276.551	841.371
279.444	845.5
282.337	821.738
285.229	713.484
288.122	764.023
291.015	583.078
293.908	453.531
296.8	168.059
299.693	128.418
302.586	116.594
305.478	175.598
308.371	306.445
311.264	226.16
314.156	301.098
317.049	86.6094
319.942	61.8633
322.834	60.9219
325.727	175.57
328.62	150.695
331.513	24.5586
334.405	52.5547
337.298	107.168
340.191	165.547
343.083	114.082
345.976	48.8281
348.869	228.434
351.762	40.5859
354.654	62.6602
357.547	97.4531
360.44	174.074
363.332	256.297
366.225	236.957
369.118	394.246
372.01	509.988
374.903	640.918
377.796	837.269
380.689	935.106
383.581	966.883
386.474	1385.52
389.367	1839.84
392.259	2281.39
395.152	2885.08
398.045	2802.75
400.938	2133.7
403.83	1429.73
406.723	1032.09
409.616	463.559
412.508	554.223
415.401	274.769
418.294	292.402
421.186	271.359
424.079	292.676
426.972	340.344
429.865	282.957
432.757	386.465
435.65	360.625
438.543	561.269
441.435	569.691
444.328	503.019
447.221	592.523
450.113	425.07
453.006	380.934
455.899	453.332
458.791	331.734
461.684	196.512
464.577	189.176
467.47	314.746
470.362	231.617
473.255	255.445
476.148	119.352
479.04	33.4414
481.933	53.8047
484.826	141.934
487.719	210.91
490.611	155.106
493.504	96.9492
496.397	79.707
499.289	62.2344
502.182	34.5352
505.075	184.457
507.967	197.648
510.86	168.359
513.753	177.633
516.645	154.836
519.538	168.144
522.431	20.9531
525.324	5.60547
528.216	78.4023
531.109	155.328
534.002	156.59
536.894	92.418
539.787	79.4688
542.68	113.164
545.572	173.254
548.465	87.5586
551.358	175.664
554.251	89.5703
557.143	20.4141
560.036	251.812
562.929	204.398
565.821	291.516
568.714	208.043
571.607	31.8633
574.5	124.512
577.392	57.8125
580.285	225.926
583.178	169.731
586.07	18.3516
588.963	145.875
591.856	87.9922
594.748	19.5625
597.641	222.473
600.534	143.258
603.427	137.59
606.319	297.84
609.212	112.34
612.105	130.609
614.997	94.8398
617.89	49.3008
620.783	62.9102
623.675	124.609
626.568	55.8008
629.461	323.047
632.354	76.4375
635.246	126.621
638.139	100.809
641.032	125.363
643.924	16.3047
646.817	133.047
649.71	61.3047
652.602	14.8477
655.495	109.008
658.388	140.867
661.28	52.7148
664.173	158.82
667.066	75.8672
669.959	268.887
672.851	72.9727
675.744	197.777
678.637	143.816
681.529	7.53906
684.422	53.1641
687.315	42.6328
690.208	93.9102
693.1	92.9961
695.993	136.887
698.886	207.652
701.778	191.375
704.671	133.969
707.564	72.7383
710.457	198.207
713.349	154.66
716.242	179.238
719.135	159.453
722.027	79.3047
724.92	274.121
727.813	126.715
730.705	230.914
733.598	20.5234
736.491	183.734
739.384	41.1953
742.276	224.516
745.169	177.215
748.062	177.328
750.954	61.2578
753.847	130.234
756.74	12.0156
759.632	35.8477
762.525	11.3516
765.418	69.9492
768.311	38.5781
771.203	142.398
774.096	64.0469
776.989	14.5469
779.881	50.918
782.774	75.1562
785.667	133.512
788.559	130.883
791.452	203.887
794.345	314.703
797.237	282.043
800.13	321.086
803.023	438.195
805.916	614.703
808.808	838.512
811.701	861.676
814.594	1114.39
817.486	1133.29
820.379	1132.54
823.272	1129.49
826.164	1562.17
829.057	2050.12
831.95	3025.52
834.843	4433.6
837.735	6444.92
840.628	8822.46
843.521	8489.98
846.413	4807.36
849.306	2085.23
852.199	865.816
855.091	524.031
857.984	263.332
860.877	168.961
863.77	210.656
866.662	217.457
869.555	10.5078
872.448	178.707
875.34	168.93
878.233	34.7227
881.126	106.211
884.019	112.867
886.911	69.832
889.804	89.582
892.697	77.7852
895.589	192.469
898.482	20.3047
901.375	41.7227
904.267	187.832
907.16	4.34766
910.053	21.25
912.946	70.8867
915.838	59.2227
918.731	96.7812
921.624	4.16406
924.516	105.719
927.409	27.2051
930.302	20.334
933.194	158.867
936.087	104.053
938.98	69.4102
941.873	206.295
944.765	175.201
947.658	60.2246
950.551	7.46484
953.443	160.863
956.336	103.297
959.229	231.424
962.121	170.117
965.014	128.305
967.907	30.1582
970.8	197.44
973.692	146.09
976.585	85.0664
979.478	136.834
982.37	119.615
985.263	151.586
988.156	182.639
991.048	205.217
993.941	606.797
996.834	276.81
999.727	389.127
1002.62	773.258
1005.51	993.797
1008.4	1401.92
1011.3	2121.88
1014.19	1521.7
1017.08	808.611
1019.98	342.162
1022.87	242.383
1025.76	112.106
1028.65	139.26
1031.55	107.936
1034.44	103.312
1037.33	109.475
1040.22	63.1211
1043.12	147.172
1046.01	41.0527
1048.9	4.94922
1051.8	41.1191
1054.69	17.5078
1057.58	37.2363
1060.47	71.2188
1063.37	80.1211
1066.26	25.7207
1069.15	136.857
1072.04	207.457
1074.94	230.035
1077.83	196.269
1080.72	355.307
1083.62	315.301
1086.51	427.916
1089.4	466.918
1092.29	436.35
1095.19	438.428
1098.08	452.732
1100.97	380.309
1103.86	338.42
1106.76	146.264
1109.65	146.295
1112.54	309.475
1115.43	194.01
1118.33	179.443
1121.22	142.44
1124.11	436.297
1127.01	363.209
1129.9	488.926
1132.79	654.033
1135.68	784.106
1138.58	1107.32
1141.47	1077.31
1144.36	1265.59
1147.25	1484.01
1150.15	1667.59
1153.04	1718.22
1155.93	1853.51
1158.83	1697.64
1161.72	1713.55
1164.61	1685.29
1167.5	1633.24
1170.4	1392.8
1173.29	1255.78
1176.18	1136.64
1179.07	845.877
1181.97	712.523
1184.86	577.824
1187.75	499.361
1190.64	271.4
1193.54	270.383
1196.43	264.514
1199.32	149.844
1202.22	13.3418
1205.11	14.416
1208	53.3633
1210.89	133.625
1213.79	99.7637
1216.68	186.715
1219.57	221.269
1222.46	187.82
1225.36	165.568
1228.25	93.7109
1231.14	134.785
1234.04	122.619
1236.93	23.0645
