Measurement: Raman, 532 nm, unoriented, Raman Data Processed
Mineral: Uzonite
Rruff sample: R100020
Ideal chemistry: As_4_S_5_
Locality: Lazaresti, Harghita County, Romania
Source: William Pinch
Description: Yellow prismatic crystals associated with isolated red crystals of realgar
Raman shift (cm-1)	intensity
137.815	0
141.19	0.038824
144.565	1.15137
147.94	1.17211
151.315	1.82593
154.689	2.78504
158.064	1.08565
161.439	1.67157
164.814	4.58538
168.189	6.70836
171.563	6.93299
174.938	6.66197
178.313	7.55422
181.688	9.71145
185.063	11.8755
188.437	13.0031
191.812	12.166
195.187	9.67048
198.562	8.4445
201.937	7.40156
205.311	7.59881
208.686	8.29662
212.061	14.1988
215.436	19.1486
218.811	21.7925
222.186	25.028
225.56	28.6243
228.935	35.2547
232.31	26.1289
235.685	14.8264
239.06	6.85266
242.435	1.93222
245.809	0.746862
249.184	0.16191
252.559	0.0533
255.934	0.112776
259.309	0.238162
262.683	0.019955
266.058	0.379003
269.433	0.617557
272.808	1.36365
276.183	0.419845
279.558	0.24371
282.932	0.206813
286.307	0.150791
289.682	0.716381
293.057	1.48937
296.432	2.6107
299.806	3.89492
303.181	6.16995
306.556	7.08116
309.931	7.22821
313.306	8.50836
316.68	9.29809
320.055	13.0262
323.43	17.4216
326.805	20.2921
330.18	20.5381
333.555	23.5263
336.929	26.6817
340.304	27.7585
343.679	25.0057
347.054	19.6425
350.429	14.0824
353.803	10.1185
357.178	9.60543
360.553	10.9947
363.928	9.48852
367.303	7.53361
370.678	6.73941
374.052	6.00499
377.427	5.54727
380.802	5.15763
384.177	4.1244
387.552	2.98606
390.926	0.975207
394.301	0.010562
397.676	0.083614
401.051	0.162801
404.426	0.199825
407.8	0.159186
411.175	0.166676
414.55	0.015624
417.925	0.066211
421.3	0.202028
424.675	0.411666
428.049	0.55248
431.424	0.363562
434.799	0.29986
438.174	0.08598
441.549	0.288894
444.923	0.256995
448.298	0.09404
451.673	0.001403
455.048	0.003623
458.423	0.646892
461.798	0.295262
465.172	0.312837
468.547	0.548787
471.922	0.426976
475.297	0.294615
478.672	0.801486
482.046	0.511555
485.421	0.685062
488.796	0.526818
492.171	0.730282
495.546	0.276814
498.921	0.272716
502.295	0.161636
505.67	0.556026
509.045	0.183536
512.42	0.244032
515.795	0.519064
519.169	0.007595
522.544	0.14823
525.919	0.184131
529.294	0.339681
532.669	0.988764
536.044	0.536122
539.418	0.101304
542.793	0.200477
546.168	0.072988
549.543	0.877079
552.918	0.2872
556.293	0.897228
559.667	0.379148
563.042	0.040277
566.417	0.394861
569.792	0.751282
573.167	0.778329
576.541	0.2415
579.916	0.460326
583.291	0.535967
586.666	0.346257
590.041	0.262046
593.415	0.759616
596.79	0.353646
600.165	0.911953
603.54	0.365411
606.915	0.574681
610.289	0.043371
613.664	0.071036
617.039	0.195564
620.414	0.385764
623.789	0.253359
627.164	0.342009
630.538	0.30068
633.913	0.001152
637.288	0.07949
640.663	0.256761
644.038	0.272992
647.413	0.666256
650.787	0.248379
654.162	0.096004
657.537	0.134343
660.912	0.191326
664.287	0.626505
667.661	0.731495
671.036	0.407738
674.411	0.182724
677.786	0.375585
681.161	0.097602
684.535	0.341161
687.91	0.403414
691.285	0.186203
694.66	0.00468
698.035	0.397465
701.409	0.625235
704.784	0.354428
708.159	0.527408
711.534	0.12966
714.909	0.417839
718.284	0.280454
721.658	0.039503
725.033	0.476831
728.408	0.598595
731.783	0.659916
735.158	0.373311
738.533	0.362498
741.907	0.118601
745.282	0.474959
748.657	0.231795
752.032	1.02022
755.407	1.45475
758.781	0.519181
762.156	0.253666
765.531	0.665058
768.906	0.427299
772.281	0.545262
775.655	0.132971
779.03	0.155759
782.405	0.259809
785.78	0.876639
789.155	0.190207
792.53	0.602899
795.904	0.343424
799.279	0.244915
802.654	0.694058
806.029	0.035888
809.404	0.106614
812.779	0.343854
816.153	0.51072
819.528	0.457428
822.903	0.604194
826.278	0.343348
829.653	0.536758
833.027	0.203175
836.402	0.34267
839.777	0.202671
843.152	0.040123
846.527	0.017755
849.902	0.518629
853.276	0.55173
856.651	0.510728
860.026	0.325257
863.401	0.925962
866.776	0.456318
870.15	0.45455
873.525	0.663197
876.9	0.225245
880.275	0.382269
883.65	0.600231
887.024	0.451441
890.399	0.058995
893.774	0.003189
897.149	0.080359
900.524	0.164424
903.899	0.317049
907.273	0.472567
910.648	0.389085
914.023	0.72321
917.398	0.540214
920.773	0.562927
924.148	0.327287
927.522	0.249074
930.897	0.160109
934.272	0.612492
937.647	0.440611
941.021	0.402439
944.396	0.467007
947.771	0.419827
951.146	0.623759
954.521	0.780327
957.896	0.193302
961.27	0.168374
964.645	0.244617
968.02	0.973997
971.395	7e-05
974.77	0.676255
978.144	0.342896
981.519	0.542555
984.894	0.769985
988.269	0.083715
991.644	0.132978
995.019	0.182594
998.393	0.866923
1001.77	0.417771
1005.14	0.461245
1008.52	0.627264
1011.89	0.168036
1015.27	0.479857
1018.64	1.11876
1022.02	0.382938
1025.39	0.411472
1028.77	0.312505
1032.14	0.255752
1035.52	0.088465
1038.89	0.441913
1042.27	0.071888
1045.64	0.292941
1049.02	0.642413
1052.39	0.562449
1055.77	0.219158
1059.14	0.216104
1062.52	0.348482
1065.89	0.464148
1069.27	0.217178
1072.64	0.005257
1076.01	0.583549
1079.39	0.367747
1082.76	0.136473
1086.14	0.101769
1089.51	0.383659
1092.89	0.380117
1096.26	0.226148
1099.64	0.041743
1103.01	0.553164
1106.39	0.227807
1109.76	0.424802
1113.14	0.229304
1116.51	0.431541
1119.89	0.58176
1123.26	0.026858
1126.64	0.395756
1130.01	0.153894
1133.39	0.285378
1136.76	0.653042
1140.14	0.337915
1143.51	0.454345
1146.88	0.479948
1150.26	0.141963
1153.63	0.39614
1157.01	0.424559
1160.38	0.50872
1163.76	0.301065
1167.13	0.238408
1170.51	0.478547
1173.88	0.202311
1177.26	1.03092
1180.63	0.187832
1184.01	0.580635
1187.38	0.041888
1190.76	0.693032
1194.13	0.893313
1197.51	0.425705
1200.88	0.538696
1204.26	0.379169
1207.63	0.106606
1211.01	0.650233
1214.38	0.5482
1217.76	0.6406
1221.13	0.227523
1224.51	0.27642
1227.88	0.216027
1231.26	0.724377
1234.63	0.791686
1238.01	0.948074
1241.38	0.383343
1244.76	0.189445
1248.13	1.02739
1251.51	0.181977
1254.88	0.33495
1258.25	0.703184
1261.63	0.345778
1265	0.234136
1268.38	0.776343
1271.75	0.576761
1275.13	0.466333
1278.5	0.499344
1281.88	0.112991
1285.25	0.618968
1288.63	0.03107
1292	0.176287
1295.38	0.400152
1298.75	0.293625
1302.13	0
