Measurement: Raman, 780 nm, unoriented, Raman Data Processed
Mineral: Vaesite
Rruff sample: R070763
Ideal chemistry: Ni^2+^(S_2_)^2-^
Locality: Shaba (Katanga), Congo (Za√Øre)
Source: Michael Scott
Description: Metallic black micro-octahedra in massive aggregates associated with pyrite
Raman shift (cm-1)	intensity
173.777	0
176.67	13.1396
179.563	58.7064
182.456	33.6352
185.348	41.4151
188.241	35.0543
191.134	10.2057
194.026	9.73016
196.919	28.9448
199.812	27.5778
202.704	12.002
205.597	15.3807
208.49	14.8091
211.382	9.5545
214.275	5.4762
217.168	58.65
220.061	76.4268
222.953	150.033
225.846	175.063
228.739	261.78
231.631	351.115
234.524	371.221
237.417	257.859
240.31	180.815
243.202	121.5
246.095	129.935
248.988	81.2199
251.88	85.2863
254.773	70.943
257.666	48.9239
260.558	73.1146
263.451	137.706
266.344	79.5426
269.236	71.4183
272.129	31.1735
275.022	45.1247
277.915	33.2559
280.807	27.0663
283.7	18.7347
286.593	10.2267
289.485	26.3821
292.378	11.933
295.271	63.7929
298.163	87.1779
301.056	107.367
303.949	169.245
306.842	213.096
309.734	192.324
312.627	147.155
315.52	107.699
318.412	72.1356
321.305	81.8069
324.198	40.5371
327.091	31.9102
329.983	25.048
332.876	26.0743
335.769	87.9109
338.661	121.949
341.554	117.359
344.447	124.805
347.339	161.944
350.232	201.525
353.125	187.932
356.017	185.382
358.91	77.1778
361.803	102.974
364.696	39.3283
367.588	71.9611
370.481	61.4299
373.374	107.987
376.266	159.211
379.159	212.558
382.052	321.96
384.945	367.293
387.837	427.253
390.73	397.607
393.623	241.968
396.515	89.6225
399.408	51.4728
402.301	7.09689
405.193	8.56177
408.086	1.33429
410.979	6.42703
413.872	3.26981
416.764	17.5063
419.657	48.997
422.55	13.5222
425.442	8.08038
428.335	37.1474
431.228	11.684
434.12	7.55447
437.013	8.25134
439.906	22.0002
442.798	28.7585
445.691	1.07156
448.584	31.2895
451.477	11.2626
454.369	28.856
457.262	26.9403
460.155	53.9454
463.047	47.2977
465.94	23.7739
468.833	33.2722
471.726	49.2195
474.618	43.0231
477.511	7.3085
480.404	37.2655
483.296	49.5399
486.189	27.5148
489.082	34.2193
491.974	34.3384
494.867	25.7208
497.76	14.1365
500.652	40.0547
503.545	25.9403
506.438	39.9765
509.331	47.0711
512.223	34.6952
515.116	32.5189
518.009	34.9
520.901	15.684
523.794	14.51
526.687	22.4613
529.58	34.0168
532.472	21.1162
535.365	28.3504
538.258	10.9831
541.15	29.4337
544.043	14.6595
546.936	9.76697
549.828	18.4189
552.721	34.4366
555.614	30.0496
558.506	9.19568
561.399	29.5237
564.292	60.32
567.185	31.8493
570.077	21.8717
572.97	4.26849
575.863	30.5833
578.755	40.0877
581.648	18.4741
584.541	15.5763
587.433	7.0209
590.326	39.3684
593.219	20.3083
596.112	4.27154
599.004	1.04303
601.897	9.15002
604.79	15.6791
607.682	8.5101
610.575	7.94534
613.468	34.4284
616.361	43.1335
619.253	40.9185
622.146	3.49713
625.039	29.8484
627.931	12.7873
630.824	31.8472
633.717	19.0906
636.609	33.0665
639.502	27.3082
642.395	0.270294
645.288	40.2865
648.18	2.21121
651.073	16.4499
653.966	12.9002
656.858	39.7551
659.751	5.23273
662.644	26.2123
665.536	31.744
668.429	6.66632
671.322	24.6214
674.215	7.84293
677.107	14.5047
680	5.17996
682.893	37.5196
685.785	32.3207
688.678	29.8294
691.571	19.4347
694.463	15.4216
697.356	19.2767
700.249	30.7994
703.141	34.568
706.034	18.0652
708.927	21.659
711.82	28.1643
714.712	5.92795
717.605	48.0808
720.498	31.1109
723.39	31.2705
726.283	15.1973
729.176	21.0692
732.068	15.9445
734.961	5.79495
737.854	27.0153
740.747	3.3193
743.639	24.9636
746.532	21.4106
749.425	34.4971
752.317	30.6305
755.21	15.1428
758.103	31.6183
760.995	1.50128
763.888	40.2334
766.781	28.4837
769.674	37.009
772.566	19.0432
775.459	12.6891
778.352	17.859
781.244	16.819
784.137	15.7526
787.03	10.9315
789.923	12.3877
792.815	13.6008
795.708	27.0987
798.601	9.18308
801.493	9.11383
804.386	1.03919
807.279	24.9373
810.171	24.3594
813.064	14.9506
815.957	26.5947
818.85	10.9688
821.742	32.7897
824.635	4.37869
827.528	9.13858
830.42	21.0771
833.313	14.87
836.206	10.8507
839.098	2.0979
841.991	26.6623
844.884	19.6753
847.776	43.8808
850.669	25.7868
853.562	3.39084
856.455	15.6997
859.347	31.1419
862.24	33.3962
865.133	19.2649
868.025	28.6876
870.918	13.831
873.811	38.1156
876.703	27.6031
879.596	42.327
882.489	23.3252
885.381	4.59427
888.274	25.2896
891.167	9.66495
894.06	1.56598
896.952	32.0447
899.845	18.3036
902.738	18.1716
905.63	22.9612
908.523	21.1522
911.416	17.6113
914.308	4.8186
917.201	22.3063
920.094	17.1766
922.987	24.843
925.879	11.7666
928.772	16.3539
931.665	6.16101
934.557	30.4385
937.45	7.47958
940.343	15.7436
943.236	12.5503
946.128	11.775
949.021	37.4692
951.914	19.6865
954.806	17.2054
957.699	34.9013
960.592	24.3249
963.484	20.8143
966.377	3.35587
969.27	12.5302
972.163	35.8672
975.055	5.16525
977.948	24.2809
980.841	0.626404
983.733	22.4305
986.626	10.7182
989.519	27.728
992.411	9.88171
995.304	16.4936
998.197	28.3299
1001.09	19.2181
1003.98	32.2738
1006.88	45.7985
1009.77	10.4717
1012.66	6.89377
1015.55	32.2383
1018.45	14.2253
1021.34	8.62625
1024.23	34.0176
1027.12	40.4857
1030.02	34.4359
1032.91	17.9269
1035.8	45.3287
1038.69	30.32
1041.59	20.3304
1044.48	34.1137
1047.37	17.9927
1050.27	29.4587
1053.16	30.8961
1056.05	2.86514
1058.94	31.8496
1061.84	18.5946
1064.73	3.73761
1067.62	13.5236
1070.51	8.95239
1073.41	25.4883
1076.3	31.2488
1079.19	15.9689
1082.09	25.2719
1084.98	2.64947
1087.87	32.691
1090.76	7.23843
1093.66	23.0236
1096.55	18.9692
1099.44	19.8739
1102.33	17.8472
1105.23	11.3999
1108.12	29.7421
1111.01	16.7757
1113.9	27.3178
1116.8	12.9129
1119.69	21.9711
1122.58	36.3125
1125.48	17.9674
1128.37	4.9443
1131.26	20.1639
1134.15	4.72559
1137.05	19.4612
1139.94	31.9805
1142.83	14.1157
1145.72	9.11478
1148.62	21.4028
1151.51	28.6144
1154.4	20.2386
1157.3	32.2984
1160.19	43.4233
1163.08	19.6626
1165.97	7.02695
1168.87	24.8922
1171.76	10.7925
1174.65	0.9935
1177.54	0
