Measurement: Raman, 532 nm, unoriented, Raman Data Processed
Mineral: Vaesite
Rruff sample: R070763
Ideal chemistry: Ni^2+^(S_2_)^2-^
Locality: Shaba (Katanga), Congo (Za√Øre)
Source: Michael Scott
Description: Metallic black micro-octahedra in massive aggregates associated with pyrite
Raman shift (cm-1)	intensity
184.28	15.2154
187.172	10.7631
190.065	14.4139
192.958	42.2316
195.851	1.23517
198.743	5.08838
201.636	31.4864
204.529	1.58478
207.421	5.80963
210.314	30.8972
213.207	11.3229
216.099	21.4785
218.992	17.2598
221.885	6.47339
224.778	18.6166
227.67	35.658
230.563	17.4334
233.456	62.5138
236.348	33.0845
239.241	53.0306
242.134	4.80707
245.026	33.7077
247.919	21.2741
250.812	15.2305
253.704	3.45996
256.597	15.6271
259.49	37.5272
262.383	27.3823
265.275	6.8009
268.168	3.29889
271.061	35.0977
273.953	24.7601
276.846	29.6025
279.739	11.9602
282.632	26.3639
285.524	12.599
288.417	38.7673
291.31	51.0744
294.202	40.8147
297.095	48.9554
299.988	100.007
302.88	125.058
305.773	151.1
308.666	136.774
311.558	112.395
314.451	91.9655
317.344	28.3131
320.237	38.8972
323.129	48.8965
326.022	6.35407
328.915	27.9378
331.807	52.4435
334.7	43.1886
337.593	103.982
340.486	139.336
343.378	103.411
346.271	60.9772
349.164	72.4792
352.056	66.5455
354.949	86.2112
357.842	59.6255
360.734	50.0839
363.627	41.5685
366.52	58.9793
369.413	107.995
372.305	96.6698
375.198	120.05
378.091	79.3082
380.983	104.457
383.876	120.908
386.769	157.753
389.661	139.088
392.554	56.129
395.447	45.5136
398.339	6.35352
401.232	37.8157
404.125	27.6998
407.018	9.45996
409.91	27.678
412.803	27.6645
415.696	0.396423
418.588	4.401
421.481	14.8926
424.374	12.6485
427.267	62.7745
430.159	48.6755
433.052	0.340759
435.945	14.0449
438.837	26.1299
441.73	25.1402
444.623	24.784
447.515	56.6193
450.408	20.7879
453.301	25.7613
456.193	38.2495
459.086	29.0738
461.979	18.7136
464.872	26.5664
467.764	38.8414
470.657	34.3829
473.55	18.2451
476.442	27.1244
479.335	60.5096
482.228	32.0792
485.12	65.949
488.013	12.1329
490.906	55.6348
493.799	21.4089
496.691	21.4987
499.584	14.5489
502.477	40.9008
505.369	66.5625
508.262	24.9874
511.155	34.8959
514.047	9.4549
516.94	5.06036
519.833	3.39111
522.726	2.48328
525.618	26.5104
528.511	14.7871
531.404	31.9622
534.296	18.1757
537.189	37.8184
540.082	27.576
542.974	11.3097
545.867	17.9097
548.76	37.1712
551.653	7.08173
554.545	47.0672
557.438	29.3184
560.331	35.4736
563.223	26.6121
566.116	6.75232
569.009	0.529236
571.901	21.7557
574.794	63.5239
577.687	19.2585
580.58	14.5353
583.472	10.1711
586.365	12.1302
589.258	32.3832
592.15	33.3748
595.043	31.9499
597.936	41.5411
600.828	46.0129
603.721	22.9154
606.614	12.9658
609.506	45.5351
612.399	25.24
615.292	36.2454
618.185	27.2024
621.077	31.8132
623.97	1.99799
626.863	11.3073
629.755	46.3654
632.648	20.4396
635.541	40.5513
638.433	0.489563
641.326	22.1857
644.219	6.27478
647.112	23.8244
650.004	41.7872
652.897	30.6379
655.79	4.4986
658.682	15.4697
661.575	49.3623
664.468	34.7506
667.361	15.4127
670.253	0.5896
673.146	26.3339
676.039	3.53961
678.931	23.3412
681.824	33.9692
684.717	41.9192
687.609	53.262
690.502	0.361511
693.395	17.6141
696.288	34.7689
699.18	13.0527
702.073	41.9071
704.966	21.7541
707.858	18.2892
710.751	17.919
713.644	5.87048
716.536	29.8093
719.429	42.7161
722.322	23.1364
725.215	7.13696
728.107	40.5093
731	17.1654
733.893	16.5295
736.785	25.6978
739.678	8.54364
742.571	2.29956
745.463	29.5153
748.356	17.3668
751.249	18.8846
754.141	29.594
757.034	27.8702
759.927	15.1158
762.82	19.2706
765.712	28.9419
768.605	53.4962
771.498	0.283936
774.39	26.1976
777.283	18.6556
780.176	28.7474
783.068	8.98883
785.961	45.0602
788.854	50.5326
791.747	4.25153
794.639	22.6713
797.532	31.5809
800.425	21.8072
803.317	23.8807
806.21	72.8865
809.103	29.5074
811.995	25.0135
814.888	22.7571
817.781	10.1578
820.674	18.9608
823.566	3.82861
826.459	11.6992
829.352	11.4211
832.244	41.967
835.137	4.39044
838.03	11.7525
840.922	1.81189
843.815	28.0592
846.708	22.1319
849.601	52.8934
852.493	29.5301
855.386	2.79169
858.279	28.843
861.171	38.1033
864.064	38.1896
866.957	14.425
869.849	6.02936
872.742	30.9528
875.635	31.0067
878.528	46.8214
881.42	42.5714
884.313	30.2206
887.206	25.6295
890.098	12.956
892.991	12.4377
895.884	18.0254
898.776	29.7968
901.669	19.2902
904.562	33.0925
907.455	15.9759
910.347	12.7638
913.24	5.32831
916.133	18.2408
919.025	35.2883
921.918	34.0832
924.811	12.2471
927.703	14.766
930.596	1.07135
933.489	23.1113
936.381	10.014
939.274	10.3266
942.167	30.9774
945.06	2.40356
947.952	11.3496
950.845	17.2877
953.738	21.7774
956.63	0.721375
959.523	17.3716
962.416	4.80389
965.308	18.5365
968.201	34.8625
971.094	23.0979
973.987	10.7636
976.879	28.9634
979.772	16.7029
982.665	8.62262
985.557	22.89
988.45	38.0531
991.343	5.83624
994.236	18.0538
997.128	15.6019
1000.02	33.3317
1002.91	11.9044
1005.81	12.4097
1008.7	8.76251
1011.59	30.3416
1014.48	24.9266
1017.38	21.8625
1020.27	11.1185
1023.16	8.6582
1026.06	18.0253
1028.95	29.8575
1031.84	23.5973
1034.73	27.1589
1037.63	46.7169
1040.52	27.7039
1043.41	7.27966
1046.3	36.7704
1049.2	9.11475
1052.09	41.6855
1054.98	27.2682
1057.88	2.79114
1060.77	29.7453
1063.66	12.825
1066.55	47.1668
1069.45	1.2226
1072.34	19.6915
1075.23	26.6865
1078.12	26.7894
1081.02	6.95465
1083.91	30.3462
1086.8	34.5185
1089.69	15.1565
1092.59	3.33893
1095.48	26.1237
1098.37	27.7632
1101.27	8.79541
1104.16	2.58643
1107.05	9.15961
1109.94	36.0155
1112.84	19.0695
1115.73	27.7462
1118.62	44.7515
1121.51	7.45166
1124.41	17.2169
1127.3	23.3959
1130.19	26.3076
1133.09	8.29504
1135.98	36.1052
1138.87	16.931
1141.76	18.3959
1144.66	20.3146
1147.55	12.1284
1150.44	12.5995
1153.33	7.27795
1156.23	5.90137
1159.12	31.3142
1162.01	5.39038
1164.9	41.2682
1167.8	37.9933
1170.69	24.9523
1173.58	17.8348
1176.48	28.3223
1179.37	27.3655
1182.26	1.84473
1185.15	21.0574
1188.05	29.6693
1190.94	18.4691
1193.83	46.7062
1196.72	20.6151
1199.62	35.8058
1202.51	22.9562
1205.4	23.9177
1208.3	24.6697
1211.19	36.5514
1214.08	35.3023
1216.97	14.5273
1219.87	18.8849
1222.76	15.1809
1225.65	5.62634
1228.54	26.7738
1231.44	0.903442
1234.33	25.8459
1237.22	13.0229
1240.12	27.5609
1243.01	3.5426
1245.9	34.7109
1248.79	13.7495
1251.69	6.52197
1254.58	14.8788
1257.47	54.4818
