Measurement: Raman, 532 nm, unoriented, Raman Data Processed
Mineral: Valleriite
Rruff sample: R070750
Ideal chemistry: 2[(Fe,Cu)S]1.53[(Mg,Al)(OH)_2_]
Locality: Talnakh Cu-Ni Deposit, Taimyr Peninsula, Noril'sk, Putoran Mts, Taymyrskiy Autonomous Okrug, Eastern-Siberian Region, Russia
Source: Michael Scott
Description: Bronze-yellow metallic massive associated with calcite
Raman shift (cm-1)	intensity
193.44	0
196.333	0.18399
199.225	26.1631
202.118	42.6315
205.011	24.0912
207.904	0.306244
210.796	0.275238
213.689	19.004
216.582	30.5791
219.474	15.5918
222.367	4.25797
225.26	1.48294
228.152	35.5418
231.045	28.6569
233.938	65.4841
236.83	49.8353
239.723	134.403
242.616	124.249
245.508	108.016
248.401	92.5465
251.294	121.266
254.187	67.4277
257.079	89.5547
259.972	74.0992
262.865	47.9221
265.757	46.5544
268.65	30.5656
271.543	37.7441
274.435	37.2371
277.328	9.78937
280.221	16.8989
283.114	44.4027
286.006	45.0939
288.899	47.53
291.792	77.6818
294.684	54.6565
297.577	82.9995
300.47	84.1681
303.363	98.2531
306.255	131.491
309.148	113.181
312.041	153.438
314.933	173.277
317.826	202.018
320.719	196.97
323.611	235.832
326.504	208.561
329.397	257.818
332.289	253.139
335.182	268.096
338.075	299.005
340.968	312.265
343.86	292.755
346.753	242.412
349.646	252.255
352.538	208.342
355.431	209.676
358.324	171.738
361.216	155.996
364.109	114.08
367.002	85.6185
369.895	87.767
372.787	57.8668
375.68	49.4062
378.573	11.3799
381.465	38.9936
384.358	23.6145
387.251	43.4727
390.144	6.6597
393.036	22.6293
395.929	12.6036
398.822	7.45291
401.714	36.2296
404.607	9.69321
407.5	34.5845
410.392	43.2662
413.285	46.0444
416.178	0.525757
419.07	5.4433
421.963	28.7357
424.856	8.56988
427.749	35.4125
430.641	33.1682
433.534	53.1202
436.427	26.8675
439.319	40.2642
442.212	44.2409
445.105	37.5144
447.998	51.4483
450.89	18.6574
453.783	27.8378
456.676	55.4974
459.568	25.7345
462.461	19.9425
465.354	28.5376
468.246	20.0562
471.139	1.66721
474.032	24.8844
476.925	29.4739
479.817	24.9133
482.71	17.037
485.603	13.5807
488.495	6.9165
491.388	48.5377
494.281	4.15805
497.173	20.8054
500.066	10.1301
502.959	11.7014
505.851	35.0479
508.744	30.3174
511.637	26.507
514.529	30.5172
517.422	18.3251
520.315	3.24957
523.208	16.8442
526.1	47.2453
528.993	23.8511
531.886	22.1768
534.778	33.3691
537.671	36.6379
540.564	19.5504
543.457	21.2773
546.349	25.6675
549.242	15.1428
552.135	20.4353
555.027	27.9704
557.92	14.3076
560.813	12.5579
563.705	31.787
566.598	22.8112
569.491	7.52609
572.384	38.0625
575.276	25.3663
578.169	11.4389
581.062	38.255
583.954	2.81628
586.847	46.5616
589.74	6.83661
592.632	1.76685
595.525	17.835
598.418	13.4387
601.311	27.7423
604.203	20.1959
607.096	7.24097
609.989	16.8683
612.881	23.7071
615.774	20.5603
618.667	32.9321
621.559	0.153137
624.452	9.46628
627.345	22.7503
630.237	30.2857
633.13	15.4838
636.023	8.81528
638.916	10.5227
641.808	4.52792
644.701	10.7293
647.594	21.8305
650.486	37.3203
653.379	21.5629
656.272	13.6704
659.164	42.9267
662.057	22.9308
664.95	15.5794
667.843	7.23273
670.735	27.2551
673.628	20.298
676.521	5.48169
679.413	30.9995
682.306	26.794
685.199	31.4494
688.091	25.4491
690.984	17.655
693.877	9.34158
696.77	18.5491
699.662	18.8887
702.555	22.2168
705.448	7.01309
708.34	15.3312
711.233	17.3219
714.126	13.108
717.019	30.6299
719.911	15.4245
722.804	15.5991
725.697	16.5207
728.589	25.0529
731.482	19.3975
734.375	8.04214
737.267	20.3827
740.16	10.9824
743.053	19.7292
745.946	26.693
748.838	27.019
751.731	25.777
754.624	10.4471
757.516	19.2058
760.409	7.17313
763.302	14.9807
766.194	10.5312
769.087	33.7914
771.98	1.38733
774.872	14.5124
777.765	11.5781
780.658	10.3888
783.551	19.2659
786.443	19.7532
789.336	38.9944
792.229	33.6161
795.121	29.1698
798.014	21.3329
800.907	11.2472
803.799	16.7405
806.692	46.2229
809.585	1.43184
812.478	7.073
815.37	17.2711
818.263	0.061996
821.156	24.2001
824.048	18.9808
826.941	15.9741
829.834	3.56688
832.726	52.6127
835.619	3.85507
838.512	20.8794
841.404	27.1803
844.297	17.9833
847.19	26.5396
850.083	19.479
852.975	23.2
855.868	24.5624
858.761	7.23265
861.653	20.8785
864.546	40.825
867.439	30.3457
870.332	21.4688
873.224	12.0945
876.117	28.2531
879.01	25.1345
881.902	38.1944
884.795	33.585
887.688	17.8055
890.58	22.246
893.473	10.6988
896.366	6.38539
899.259	49.8586
902.151	8.11517
905.044	9.27354
907.937	23.5521
910.829	28.9845
913.722	19.757
916.615	37.5118
919.507	20.8608
922.4	36.9057
925.293	27.6825
928.186	31.8149
931.078	6.70108
933.971	51.5325
936.864	27.2333
939.756	12.202
942.649	3.16599
945.542	7.97565
948.434	22.3377
951.327	0.716797
954.22	15.0197
957.112	26.325
960.005	18.5917
962.898	11.9557
965.791	21.2031
968.683	19.7651
971.576	19.6035
974.469	18.7637
977.361	30.7884
980.254	6.39224
983.147	36.8074
986.039	7.17886
988.932	16.053
991.825	3.58426
994.718	27.4972
997.61	7.99979
1000.5	17.8317
1003.4	17.495
1006.29	16.4576
1009.18	6.58777
1012.07	12.6639
1014.97	22.7303
1017.86	14.3914
1020.75	40.3287
1023.64	15.2879
1026.54	21.4273
1029.43	20.1062
1032.32	23.2879
1035.21	33.2269
1038.11	19.1031
1041	20.4057
1043.89	26.0828
1046.79	43.2342
1049.68	33.8043
1052.57	32.1132
1055.46	18.9965
1058.36	22.7128
1061.25	19.5473
1064.14	27.5689
1067.04	43.9284
1069.93	23.8799
1072.82	8.43549
1075.71	17.185
1078.61	12.8899
1081.5	16.849
1084.39	25.7643
1087.28	32.2518
1090.18	30.2327
1093.07	12.5173
1095.96	42.0151
1098.86	7.13501
1101.75	22.0323
1104.64	22.7534
1107.53	14.9347
1110.43	26.3445
1113.32	7.27087
1116.21	18.7819
1119.1	11.6441
1122	39.8925
1124.89	24.851
1127.78	17.0804
1130.67	17.1078
1133.57	18.1232
1136.46	18.4265
1139.35	25.8631
1142.24	23.96
1145.14	28.9328
1148.03	0.934387
1150.92	38.1824
1153.82	7.00488
1156.71	25.4087
1159.6	35.5084
1162.49	7.46207
1165.39	11.6923
1168.28	3.08383
1171.17	6.37265
1174.07	9.87485
1176.96	37.5806
1179.85	20.0021
1182.74	12.2392
1185.64	15.8583
1188.53	14.4952
1191.42	7.07544
1194.31	24.9107
1197.21	18.5166
1200.1	18.6829
1202.99	29.7836
1205.88	27.4831
1208.78	3.61969
1211.67	39.5868
1214.56	23.1849
1217.45	7.18579
1220.35	10.5409
1223.24	11.7081
1226.13	36.6527
1229.03	13.4446
1231.92	7.40622
1234.81	32.8867
1237.7	9.81815
1240.6	10.9583
1243.49	0.181793
1246.38	18.8642
1249.28	29.4707
1252.17	4.84222
1255.06	19.5196
1257.95	20.9372
1260.85	16.6581
1263.74	13.1479
1266.63	17.6931
1269.52	24.609
1272.42	16.8803
1275.31	0.458801
