Measurement: Raman, 780 nm, unoriented, Raman Data Processed
Mineral: Valleriite
Rruff sample: R070750
Ideal chemistry: 2[(Fe,Cu)S]1.53[(Mg,Al)(OH)_2_]
Locality: Talnakh Cu-Ni Deposit, Taimyr Peninsula, Noril'sk, Putoran Mts, Taymyrskiy Autonomous Okrug, Eastern-Siberian Region, Russia
Source: Michael Scott
Description: Bronze-yellow metallic massive associated with calcite
Raman shift (cm-1)	intensity
182.456	0
185.348	59.8712
188.241	1.61401
191.134	25.1219
194.026	52.6686
196.919	42.5644
199.812	62.4667
202.704	11.9003
205.597	20.0894
208.49	0.208008
211.382	5.15826
214.275	5.96051
217.168	22.3156
220.061	30.7189
222.953	24.5544
225.846	12.6448
228.739	19.2132
231.631	54.5097
234.524	31.2096
237.417	89.1274
240.31	69.6142
243.202	56.9503
246.095	115.223
248.988	124.244
251.88	116.885
254.773	110.766
257.666	159.651
260.558	137.963
263.451	108.016
266.344	141.257
269.236	89.1334
272.129	60.5507
275.022	64.2846
277.915	73.1183
280.807	73.5697
283.7	79.5608
286.593	106.956
289.485	151.166
292.378	162.333
295.271	155.679
298.163	197.216
301.056	213.879
303.949	235.379
306.842	271.657
309.734	289.127
312.627	265.087
315.52	258.101
318.412	277.75
321.305	295.487
324.198	299.657
327.091	285.47
329.983	283.297
332.876	259.026
335.769	328.655
338.661	307.969
341.554	327.013
344.447	330.532
347.339	263.928
350.232	260.453
353.125	186.024
356.017	168.409
358.91	141.972
361.803	167.228
364.696	96.9478
367.588	87.9311
370.481	25.1486
373.374	30.404
376.266	8.7645
379.159	8.27213
382.052	7.30313
384.945	7.46393
387.837	14.2667
390.73	8.05899
393.623	8.59958
396.515	2.28909
399.408	5.25256
402.301	6.05276
405.193	10.1115
408.086	17.8749
410.979	11.3018
413.872	9.12646
416.764	11.1452
419.657	43.3969
422.55	45.3614
425.442	11.3381
428.335	44.0387
431.228	21.3055
434.12	60.7892
437.013	35.6695
439.906	57.7297
442.798	66.2141
445.691	36.2889
448.584	45.092
451.477	25.7318
454.369	21.4839
457.262	41.0893
460.155	25.9449
463.047	44.7554
465.94	12.4327
468.833	39.2916
471.726	66.0386
474.618	23.7859
477.511	8.75494
480.404	27.8069
483.296	35.8119
486.189	18.0458
489.082	48.5842
491.974	17.1834
494.867	42.0028
497.76	16.6031
500.652	40.7413
503.545	22.0572
506.438	32.5403
509.331	21.1123
512.223	24.6333
515.116	22.3972
518.009	30.7163
520.901	9.4509
523.794	13.0537
526.687	21.8146
529.58	17.9322
532.472	12.4304
535.365	32.9743
538.258	5.62637
541.15	10.3941
544.043	26.836
546.936	16.6453
549.828	46.0046
552.721	18.0675
555.614	26.0501
558.506	44.5312
561.399	43.2038
564.292	30.2847
567.185	13.4357
570.077	8.82968
572.97	16.274
575.863	39.739
578.755	20.2599
581.648	2.10086
584.541	19.6313
587.433	9.73038
590.326	21.2844
593.219	9.76514
596.112	0.846008
599.004	21.1897
601.897	5.3381
604.79	51.586
607.682	21.5933
610.575	6.64688
613.468	29.2419
616.361	40.4996
619.253	36.2443
622.146	28.8347
625.039	27.9974
627.931	19.2703
630.824	25.9043
633.717	27.1799
636.609	36.6765
639.502	33.2537
642.395	16.1496
645.288	19.5907
648.18	24.7639
651.073	6.67804
653.966	19.1711
656.858	36.3925
659.751	26.356
662.644	46.9879
665.536	20.6952
668.429	22.96
671.322	0.838959
674.215	15.1114
677.107	15.2614
680	25.2671
682.893	40.1324
685.785	26.9631
688.678	23.5106
691.571	7.13525
694.463	30.0055
697.356	32.4799
700.249	31.1486
703.141	44.9228
706.034	25.408
708.927	11.1165
711.82	11.997
714.712	3.73297
717.605	11.762
720.498	23.0074
723.39	28.8013
726.283	18.4466
729.176	26.4047
732.068	6.35373
734.961	11.0629
737.854	10.4423
740.747	11.0488
743.639	8.20038
746.532	15.7969
749.425	29.4545
752.317	26.0896
755.21	1.21207
758.103	7.34921
760.995	16.1864
763.888	19.0551
766.781	16.6949
769.674	21.4538
772.566	4.82178
775.459	0.744537
778.352	2.48981
781.244	2.16049
784.137	16.0081
787.03	10.9942
789.923	29.8766
792.815	7.90875
795.708	15.4887
798.601	8.44528
801.493	10.5658
804.386	1.74246
807.279	12.3181
810.171	18.748
813.064	21.4672
815.957	3.3407
818.85	3.75061
821.742	23.1023
824.635	0.75473
827.528	1.96973
830.42	29.0362
833.313	6.18907
836.206	38.1508
839.098	4.59796
841.991	37.7355
844.884	13.0144
847.776	50.4972
850.669	13.2128
853.562	9.82796
856.455	15.7503
859.347	21.0531
862.24	29.5022
865.133	15.7433
868.025	13.0122
870.918	8.7567
873.811	42.4051
876.703	37.9739
879.596	47.2793
882.489	16.2362
885.381	2.71201
888.274	20.5032
891.167	14.3846
894.06	5.88631
896.952	37.8418
899.845	38.2486
902.738	13.9091
905.63	17.2847
908.523	24.1646
911.416	6.04065
914.308	21.9931
917.201	15.8706
920.094	4.10483
922.987	28.1428
925.879	5.16141
928.772	24.6887
931.665	19.0972
934.557	35.0919
937.45	19.5588
940.343	26.0969
943.236	15.5825
946.128	14.4527
949.021	14.6911
951.914	27.8505
954.806	33.2566
957.699	23.8661
960.592	29.6193
963.484	23.9865
966.377	14.8857
969.27	15.2925
972.163	11.6334
975.055	13.7095
977.948	12.2736
980.841	0.582092
983.733	18.5968
986.626	3.82413
989.519	23.462
992.411	0.531677
995.304	15.5518
998.197	22.495
1001.09	18.4777
1003.98	3.66858
1006.88	32.636
1009.77	7.76642
1012.66	6.40619
1015.55	8.16025
1018.45	4.69876
1021.34	10.4138
1024.23	22.1431
1027.12	4.02512
1030.02	30.5502
1032.91	3.4314
1035.8	29.3939
1038.69	31.5489
1041.59	20.4833
1044.48	27.0119
1047.37	29.2291
1050.27	23.2035
1053.16	18.8147
1056.05	11.466
1058.94	21.7685
1061.84	10.0126
1064.73	11.5001
1067.62	14
1070.51	2.70721
1073.41	4.43567
1076.3	19.8592
1079.19	12.4193
1082.09	22.6802
1084.98	16.4163
1087.87	36.8028
1090.76	3.4801
1093.66	14.9372
1096.55	8.6058
1099.44	4.25772
1102.33	22.0097
1105.23	18.4438
1108.12	19.2713
1111.01	33.2641
1113.9	28.9741
1116.8	6.42606
1119.69	18.2781
1122.58	21.992
1125.48	29.5115
1128.37	14.844
1131.26	8.94226
1134.15	26.4624
1137.05	41.7741
1139.94	38.8603
1142.83	28.4882
1145.72	6.42941
1148.62	17.7518
1151.51	15.9895
1154.4	24.915
1157.3	46.5966
1160.19	28.4756
1163.08	18.2536
1165.97	22.429
1168.87	32.9796
1171.76	19.0096
1174.65	23.6198
1177.54	30.1425
1180.44	2.69214
1183.33	24.4748
1186.22	27.7724
1189.12	28.2447
1192.01	21.2762
1194.9	27.8472
1197.79	39.2446
1200.69	33.217
1203.58	21.8114
1206.47	21.0436
1209.36	12.186
1212.26	36.5911
1215.15	31.6003
1218.04	28.1469
1220.93	37.8542
1223.83	36.7371
1226.72	19.3159
1229.61	0.112457
1232.51	31.8438
1235.4	11.9603
1238.29	22.5949
1241.18	22.9227
1244.08	35.7831
1246.97	28.5872
1249.86	15.8301
1252.75	42.1347
1255.65	5.85437
1258.54	0.770691
1261.43	7.89981
1264.33	37.8319
1267.22	5.41528
1270.11	26.9767
1273	0
