Measurement: Raman, 532 nm, unoriented, Raman Data Processed
Mineral: Valleriite
Rruff sample: R080119
Ideal chemistry: 2[(Fe,Cu)S]1.53[(Mg,Al)(OH)_2_]
Locality: Transvaal, Complexe, Palabora, Sud√°frica
Source: Joan Abella i Creus
Description: Dark metallic-bronze grains
Raman shift (cm-1)	intensity
135.262	0
138.637	7.73986
142.012	4.34562
145.386	2.38593
148.761	6.4421
152.136	9.77172
155.511	13.2517
158.886	11.0718
162.26	16.7168
165.635	15.6902
169.01	12.3035
172.385	11.6165
175.76	6.04111
179.135	2.8622
182.509	0.320385
185.884	0.217731
189.259	1.2367
192.634	0.444404
196.009	0.963301
199.383	0.529801
202.758	0.302572
206.133	0.101584
209.508	0.465001
212.883	0.351633
216.257	1.93221
219.632	2.51412
223.007	2.70899
226.382	4.536
229.757	4.82352
233.132	7.66744
236.506	10.7807
239.881	15.3979
243.256	18.1343
246.631	21.3184
250.006	24.9371
253.381	28.0084
256.755	27.9084
260.13	27.5383
263.505	26.9631
266.88	27.0136
270.255	27.2544
273.629	30.0022
277.004	30.0862
280.379	32.5746
283.754	33.6409
287.129	31.4433
290.503	28.0505
293.878	24.3704
297.253	21.1312
300.628	21.0456
304.003	19.5012
307.378	19.8405
310.752	19.6122
314.127	22.8027
317.502	28.2935
320.877	33.9501
324.252	38.2325
327.627	38.602
331.001	38.3716
334.376	36.1655
337.751	32.8829
341.126	28.0395
344.5	24.3339
347.875	19.999
351.25	17.2098
354.625	12.2621
358	8.81368
361.375	3.82376
364.75	1.65161
368.124	0.658147
371.499	1.89427
374.874	0.537197
378.249	0.395451
381.623	0.011609
384.998	0.111172
388.373	0.40207
391.748	0.299825
395.123	1.34988
398.498	1.32704
401.872	1.16498
405.247	2.41714
408.622	1.75783
411.997	2.01777
415.372	3.22702
418.747	2.73744
422.121	4.28075
425.496	3.60527
428.871	3.3817
432.246	3.29999
435.621	3.69492
438.995	2.66869
442.37	2.09157
445.745	2.14059
449.12	3.31181
452.495	2.66315
455.87	2.61733
459.244	2.80909
462.619	2.87421
465.994	2.43788
469.369	2.11987
472.744	1.84255
476.118	1.82756
479.493	1.79537
482.868	1.22002
486.243	1.47949
489.618	0.582058
492.993	1.68195
496.367	0.123932
499.742	0.602987
503.117	0.40631
506.492	0.209251
509.867	0.016362
513.241	0.357807
516.616	0.479326
519.991	0.65664
523.366	0.359747
526.741	0.255077
530.115	0.202165
533.49	1.85126
536.865	1.1253
540.24	0.275885
543.615	0.849602
546.99	0.003969
550.364	0.131416
553.739	0.158281
557.114	0.359284
560.489	0.402999
563.864	0.726366
567.239	0.100346
570.613	1.03371
573.988	0.007311
577.363	0.192498
580.738	0.702685
584.112	0.875723
587.487	0.720923
590.862	0.411002
594.237	0.903252
597.612	0.917593
600.987	0.304511
604.361	0.839253
607.736	0.043819
611.111	0.209623
614.486	0.281517
617.861	0.481549
621.236	0.092416
624.61	0.509376
627.985	0.077499
631.36	2.47257
634.735	0.391718
638.11	0.308158
641.484	0.712166
644.859	1.16849
648.234	0.12647
651.609	1.20331
654.984	0.123151
658.359	0.327878
661.733	0.856565
665.108	1.71241
668.483	1.69005
671.858	1.84124
675.233	1.44027
678.607	1.08101
681.982	1.86242
685.357	1.15658
688.732	1.82755
692.107	0.570928
695.481	0.414127
698.856	0.472883
702.231	0.632136
705.606	0.467078
708.981	0.084666
712.356	0.02293
715.73	0.104256
719.105	0.367409
722.48	0.825162
725.855	0.120878
729.23	0.528509
732.605	0.283929
735.979	0.265292
739.354	0.046456
742.729	0.004056
746.104	0.065119
749.479	0.417033
752.853	0.55973
756.228	0.011193
759.603	0.072033
762.978	0.204928
766.353	0.06102
769.727	0.606179
773.102	0.49712
776.477	0.417347
779.852	0.191012
783.227	0.324807
786.602	0.33197
789.976	0.595263
793.351	0.497175
796.726	0.865465
800.101	0.862591
803.476	0.980114
806.851	0.875765
810.225	0.840483
813.6	1.54911
816.975	1.60634
820.35	0.895514
823.725	1.37749
827.099	1.19233
830.474	0.972053
833.849	1.16539
837.224	0.485211
840.599	0.999095
843.973	1.41721
847.348	2.02495
850.723	1.46744
854.098	1.2798
857.473	1.60509
860.847	2.1067
864.222	0.843351
867.597	0.539266
870.972	1.20516
874.347	1.42661
877.722	0.849446
881.096	0.462841
884.471	0.76304
887.846	0.402225
891.221	0.605851
894.596	1.07248
897.971	1.48263
901.345	1.00769
904.72	0.567735
908.095	0.116338
911.47	0.095361
914.845	0.174277
918.219	0.207426
921.594	0.709376
924.969	0.168
928.344	0.425257
931.719	0.034552
935.093	0.098899
938.468	0.971901
941.843	0.504054
945.218	0.061159
948.593	0.168445
951.968	0.151944
955.342	1.34625
958.717	1.29972
962.092	1.03445
965.467	0.605251
968.842	1.02502
972.216	0.549897
975.591	0.784436
978.966	0.644914
982.341	0.082842
985.716	1.10326
989.091	0.201201
992.465	0.212955
995.84	0.18202
999.215	0.032843
1002.59	0.883517
1005.97	0.053292
1009.34	0.822401
1012.71	0.833618
1016.09	1.24613
1019.46	0.41574
1022.84	0.702052
1026.21	1.20448
1029.59	0.996058
1032.96	1.07846
1036.34	1.18813
1039.71	1.40827
1043.09	0.775218
1046.46	0.727732
1049.84	0.719232
1053.21	0.922692
1056.59	0.662771
1059.96	0.661114
1063.34	0.797115
1066.71	0.100636
1070.09	0.273165
1073.46	1.0085
1076.84	0.827936
1080.21	0.022515
1083.59	0.084814
1086.96	0.640016
1090.34	0.08549
1093.71	0.156659
1097.09	0.787815
1100.46	0.64384
1103.83	0.313541
1107.21	0.194231
1110.58	0.469205
1113.96	0.777979
1117.33	0.084989
1120.71	0.895628
1124.08	0.678819
1127.46	0.091518
1130.83	0.787404
1134.21	0.429922
1137.58	0.726501
1140.96	0.248423
1144.33	0.707316
1147.71	0.36102
1151.08	0.081974
1154.46	0.543093
1157.83	0.371537
1161.21	0.891688
1164.58	0.461638
1167.96	0.134121
1171.33	0.592156
1174.71	0.548359
1178.08	0.787795
1181.45	0.039141
1184.83	0.664692
1188.2	1.10811
1191.58	0.486043
1194.95	1.44539
1198.33	1.35023
1201.7	1.07502
1205.08	0.500828
1208.45	0.442526
1211.83	0.934815
1215.2	1.09652
1218.58	0.543749
1221.95	0.30898
1225.33	0.28005
1228.7	0.901549
1232.08	0.284419
1235.45	0.338795
1238.83	0.516014
1242.2	0.643932
1245.58	0.959449
1248.95	0.381416
1252.33	0.450221
1255.7	0.708946
1259.08	0.476895
1262.45	0.462552
1265.83	0.271684
1269.2	0.871035
1272.58	0.799441
1275.95	0.784524
1279.33	1.01411
1282.7	0.371023
1286.07	1.29585
1289.45	0.955805
1292.82	0.914675
1296.2	1.15
1299.57	0.950919
1302.95	0.011696
