Measurement: Raman, 780 nm, unoriented, Raman Data Processed
Mineral: Valleriite
Rruff sample: R080119
Ideal chemistry: 2[(Fe,Cu)S]1.53[(Mg,Al)(OH)_2_]
Locality: Transvaal, Complexe, Palabora, Sud√°frica
Source: Joan Abella i Creus
Description: Dark metallic-bronze grains
Raman shift (cm-1)	intensity
135.432	0
138.325	2.63912
141.217	0.893121
144.11	0.139192
147.003	0.492884
149.895	1.26717
152.788	1.87827
155.681	1.5579
158.573	0.747923
161.466	0.962226
164.359	0.730762
167.251	0.626999
170.144	0.61122
173.037	0.989144
175.93	0.071582
178.822	0.258282
181.715	0.146708
184.608	0.093201
187.5	0.709079
190.393	0.011724
193.286	0.061282
196.179	0.164373
199.071	0.289386
201.964	0.94962
204.857	0.290742
207.749	0.745699
210.642	0.607483
213.535	0.883724
216.427	0.286514
219.32	1.05843
222.213	1.76201
225.106	0.52755
227.998	1.38769
230.891	1.53805
233.784	2.01762
236.676	2.31889
239.569	2.93953
242.462	2.22598
245.354	3.4747
248.247	3.22952
251.14	2.78533
254.032	2.36366
256.925	1.48244
259.818	1.91603
262.711	1.64539
265.603	0.708143
268.496	1.33855
271.389	0.801173
274.281	1.19831
277.174	0.593729
280.067	1.1456
282.959	0.994749
285.852	0.825689
288.745	1.21222
291.638	0.866213
294.53	0.736382
297.423	0.591321
300.316	2.13346
303.208	1.23643
306.101	2.25061
308.994	1.71197
311.887	3.92784
314.779	5.29724
317.672	4.31629
320.565	5.1149
323.457	5.94379
326.35	5.47291
329.243	4.91144
332.135	4.5809
335.028	3.9876
337.921	3.01578
340.813	3.02203
343.706	2.57557
346.599	2.21911
349.492	1.85832
352.384	1.73267
355.277	1.62851
358.17	0.259624
361.062	0.066373
363.955	0.048647
366.848	0.219372
369.74	0.028946
372.633	0.243377
375.526	0.217692
378.419	0.387085
381.311	0.065643
384.204	0.080674
387.097	0.127267
389.989	0.382464
392.882	0.411053
395.775	0.273377
398.668	0.208066
401.56	0.514282
404.453	0.256217
407.346	0.194755
410.238	0.775935
413.131	0.232837
416.024	0.621584
418.916	0.452517
421.809	0.831967
424.702	0.476832
427.594	0.92295
430.487	0.786323
433.38	1.32432
436.273	0.594265
439.165	0.465006
442.058	0.542338
444.951	0.292574
447.843	1.12197
450.736	0.455647
453.629	1.23947
456.522	0.841666
459.414	0.973705
462.307	0.535533
465.2	0.946522
468.092	0.685571
470.985	0.388536
473.878	0.182143
476.77	0.974521
479.663	0.547163
482.556	0.612546
485.449	0.621348
488.341	0.102527
491.234	1.04814
494.127	0.054722
497.019	1.00743
499.912	0.348124
502.805	0.457883
505.697	0.086943
508.59	0.501155
511.483	0.419844
514.375	1.00962
517.268	0.283235
520.161	0.14773
523.054	0.830085
525.946	0.550238
528.839	0.286
531.732	0.660088
534.624	0.773818
537.517	0.74728
540.41	0.036714
543.303	0.493252
546.195	0.585927
549.088	0.803887
551.981	1.26956
554.873	1.36832
557.766	0.626913
560.659	0.786437
563.551	0.341918
566.444	0.94562
569.337	0.695451
572.23	0.411071
575.122	0.428031
578.015	0.310981
580.908	0.011665
583.8	0.076504
586.693	0.130988
589.586	0.621498
592.478	0.782518
595.371	0.124051
598.264	0.337443
601.156	0.273582
604.049	0.753766
606.942	0.315075
609.835	0.222851
612.727	0.073519
615.62	0.676659
618.513	0.043544
621.405	0.405736
624.298	0.609553
627.191	0.354387
630.083	0.531371
632.976	0.647285
635.869	0.321283
638.761	0.477758
641.654	0.737268
644.547	0.110912
647.44	0.096304
650.332	0.03207
653.225	0.25928
656.118	0.575893
659.01	0.00596
661.903	0.532735
664.796	0.54734
667.688	0.554427
670.581	0.179829
673.474	0.32194
676.367	0.031116
679.259	0.340815
682.152	0.537258
685.045	0.214934
687.937	0.239879
690.83	0.454163
693.723	0.019585
696.615	0.533668
699.508	0.248555
702.401	0.24025
705.294	0.203737
708.186	0.537223
711.079	0.888014
713.972	0.027869
716.864	0.529724
719.757	0.67759
722.65	1.06065
725.543	0.114778
728.435	0.23498
731.328	0.216116
734.221	0.050766
737.113	0.188155
740.006	0.18608
742.899	0.240807
745.791	0.189318
748.684	0.247485
751.577	0.105411
754.47	0.014156
757.362	0.013449
760.255	0.563648
763.148	0.251714
766.04	0.356585
768.933	0.075181
771.826	0.117798
774.718	0.044059
777.611	0.201583
780.504	0.493868
783.396	0.452392
786.289	0.558996
789.182	0.400294
792.075	0.183658
794.967	0.510231
797.86	0.602327
800.753	0.611493
803.645	0.455068
806.538	0.757369
809.431	0.572411
812.323	1.45592
815.216	0.635713
818.109	0.761971
821.002	0.697129
823.894	0.741668
826.787	0.631221
829.68	0.652915
832.572	1.34011
835.465	1.01776
838.358	1.03916
841.25	1.21929
844.143	0.962407
847.036	1.18531
849.929	1.26922
852.821	1.46162
855.714	1.42992
858.607	1.42994
861.5	1.29071
864.392	0.700958
867.285	1.09272
870.178	0.994416
873.07	0.837037
875.963	1.04998
878.856	0.908321
881.748	1.28088
884.641	0.25655
887.534	0.968555
890.427	1.11926
893.319	0.195027
896.212	0.16982
899.105	0.320489
901.997	0.683347
904.89	0.256397
907.783	0.084805
910.675	0.120819
913.568	0.506086
916.461	0.053738
919.353	0.270731
922.246	0.05652
925.139	0.098602
928.032	0.272654
930.924	0.074174
933.817	0.533336
936.71	0.22949
939.602	0.273353
942.495	0.459045
945.388	0.702716
948.28	0.537588
951.173	0.582871
954.066	0.690134
956.958	0.671671
959.851	1.0632
962.744	0.9719
965.637	0.409989
968.529	0.895507
971.422	0.519903
974.315	0.475827
977.207	0.411818
980.1	0.434493
982.993	0.273502
985.885	0.401843
988.778	0.244804
991.671	0.188004
994.564	0.49154
997.456	0.146354
1000.35	0.378735
1003.24	0.234678
1006.13	1.29802
1009.03	0.150398
1011.92	0.101867
1014.81	0.591352
1017.71	0.521671
1020.6	0.987129
1023.49	0.574858
1026.38	0.435799
1029.28	1.03881
1032.17	0.693879
1035.06	0.244777
1037.95	0.126301
1040.85	0.329
1043.74	0.253373
1046.63	0.606412
1049.53	0.043822
1052.42	0.147719
1055.31	0.13446
1058.2	0.659073
1061.1	0.789279
1063.99	1.01854
1066.88	0.765169
1069.77	0.459301
1072.67	0.26663
1075.56	0.347903
1078.45	0.225593
1081.35	0.232611
1084.24	0.967787
1087.13	0.777259
1090.02	0.205637
1092.91	0.017587
1095.81	0.097376
1098.7	0.682203
1101.59	0.293213
1104.49	0.070905
1107.38	1.25883
1110.27	0.317625
1113.16	0.06361
1116.06	0.918403
1118.95	0.45419
1121.84	0.145074
1124.73	0.176209
1127.63	0.017042
1130.52	0.322981
1133.41	0.34943
1136.31	0.046183
1139.2	0.409481
1142.09	0.932482
1144.98	0.389263
1147.88	0.165296
1150.77	0.335491
1153.66	0.391016
1156.56	0.267446
1159.45	0.767946
1162.34	0.045125
1165.23	0.020161
1168.13	0.798001
1171.02	1.04138
1173.91	0.590366
1176.8	0.503428
1179.7	0.689168
1182.59	0.676432
1185.48	0.748454
1188.38	0.581962
1191.27	0.55651
1194.16	1.0491
1197.05	0.949092
1199.94	0.901647
1202.84	0.39589
1205.73	0.593785
1208.62	0.855538
1211.52	0.591725
1214.41	0.440838
1217.3	0.145779
1220.19	0.051134
1223.09	0.598165
1225.98	0.743413
1228.87	0.120786
1231.77	0.302527
1234.66	0.301036
1237.55	1.29179
1240.44	0.533018
1243.34	0.223594
1246.23	0.504816
1249.12	0.083705
1252.01	0.669952
1254.91	0.613609
1257.8	0.947181
1260.69	0.082619
1263.59	0.079533
1266.48	0.04111
1269.37	0.585373
1272.26	0.751586
1275.16	0.198528
1278.05	0.730341
1280.94	0.522861
1283.83	0.332721
