Measurement: Raman, 532 nm, unoriented, Raman Data Processed
Mineral: Vandendriesscheite
Rruff sample: R090064
Ideal chemistry: Pb^2+^_1.6_(U^6+^O_2_)_10_O_6_(OH)_11_11H_2_O
Locality: Shinkolobwe mine, Katanga, Congo
Source: William W. Pinch
Description: Yellowish-orange blocky crystals associated with dark reddish-orange fourmarierite
Raman shift (cm-1)	intensity
164.396	0
167.288	1.32141
170.181	40.2881
173.074	54.1267
175.966	47.9482
178.859	97.7163
181.752	86.4757
184.644	84.8209
187.537	65.3564
190.43	68.1979
193.323	97.9587
196.215	85.6428
199.108	75.0919
202.001	64.922
204.893	60.8434
207.786	43.5703
210.679	23.7331
213.571	12.7656
216.464	4.32861
219.357	9.0061
222.25	7.57617
225.142	8.88916
228.035	27.6323
230.928	11.7729
233.82	58.165
236.713	58.7819
239.606	60.8168
242.499	94.2712
245.391	121.718
248.284	124.95
251.177	146.623
254.069	120.953
256.962	131.361
259.855	119.324
262.747	118.083
265.64	100.787
268.533	105.641
271.425	75.8072
274.318	86.9703
277.211	72.8691
280.104	66.3176
282.996	58.198
285.889	58.8831
288.782	51.1603
291.674	64.0082
294.567	59.9844
297.46	44.9804
300.353	48.6251
303.245	41.1975
306.138	30.0096
309.031	29.8047
311.923	37.88
314.816	16.4673
317.709	20.6556
320.601	24.7199
323.494	19.6893
326.387	37.3064
329.279	18.2373
332.172	11.9242
335.065	14.1743
337.958	29.0393
340.85	13.579
343.743	8.55749
346.636	3.97729
349.528	15.1857
352.421	5.03125
355.314	6.47302
358.207	37.8397
361.099	13.1148
363.992	41.9186
366.885	29.4452
369.777	19.3204
372.67	34.8077
375.563	11.132
378.455	10.4902
381.348	17.306
384.241	0.435425
387.134	2.55481
390.026	14.0078
392.919	4.01038
395.812	11.7661
398.704	18.4221
401.597	19.4756
404.49	11.32
407.382	12.5427
410.275	9.12122
413.168	11.0132
416.06	26.2349
418.953	6.52625
421.846	4.78638
424.739	6.62646
427.631	20.7253
430.524	4.44031
433.417	7.20044
436.309	4.86023
439.202	8.26892
442.095	2.89636
444.987	11.0041
447.88	14.709
450.773	19.2816
453.666	9.36438
456.558	27.1853
459.451	15.2643
462.344	14.1451
465.236	27.1414
468.129	15.6617
471.022	11.9285
473.914	10.6808
476.807	24.1948
479.7	16
482.592	12.0156
485.485	17.7825
488.378	8.16296
491.271	29.8608
494.163	21.4354
497.056	22.3237
499.949	18.8929
502.841	16.0492
505.734	19.2351
508.627	17.681
511.519	37.0222
514.412	31.2562
517.305	31.8867
520.198	25.7329
523.09	36.1724
525.983	52.6666
528.876	50.2504
531.768	65.1598
534.661	74.4556
537.554	74.5236
540.447	64.2499
543.339	85.3776
546.232	77.5306
549.125	86.2771
552.017	99.0304
554.91	101.996
557.803	92.6411
560.695	105.505
563.588	93.9133
566.481	93.9989
569.374	108.08
572.266	95.36
575.159	87.3248
578.052	90.0776
580.944	82.1643
583.837	88.218
586.73	99.5386
589.622	103.748
592.515	102.294
595.408	93.1509
598.301	80.8025
601.193	91.7452
604.086	100.587
606.979	87.8351
609.871	83.606
612.764	103.052
615.657	71.5193
618.549	58.7439
621.442	40.4833
624.335	43.958
627.227	41.6732
630.12	46.4171
633.013	22.1506
635.906	13.9464
638.798	26.5656
641.691	10.1898
644.584	0.054932
647.476	2.02527
650.369	18.0215
653.262	16.8227
656.154	7.93189
659.047	8.64294
661.94	13.2705
664.833	9.26306
667.725	32.1024
670.618	9.94519
673.511	21.7564
676.403	39.3777
679.296	50.6477
682.189	68.7483
685.082	106.534
687.974	143.19
690.867	187.09
693.76	222.878
696.652	275.447
699.545	332.238
702.438	382.221
705.33	421.988
708.223	479.441
711.116	529.853
714.009	587.907
716.901	637.299
719.794	682.852
722.687	731.871
725.579	754.609
728.472	834.053
731.365	851.743
734.257	888.285
737.15	895.247
740.043	907.217
742.936	902.258
745.828	908.003
748.721	833.886
751.614	805.641
754.506	766.506
757.399	712.513
760.292	666.064
763.184	592.098
766.077	526.202
768.97	496.92
771.862	451.857
774.755	406.457
777.648	405.834
780.541	398.87
783.433	363.212
786.326	355.386
789.219	330.474
792.111	301.221
795.004	260.584
797.897	243.467
800.789	186.049
803.682	170.184
806.575	139.665
809.467	130.157
812.36	126.946
815.253	123.576
818.146	131.815
821.038	129.946
823.931	141.748
826.824	151.433
829.716	143.026
832.609	143.656
835.502	104.256
838.394	83.7864
841.287	51.5974
844.18	17.999
847.073	10.7415
849.965	15.3357
852.858	3.9353
855.751	3.12878
858.643	31.4686
861.536	31.0053
864.429	28.0977
867.322	32.2274
870.214	6.67224
873.107	27.1842
876	24.6017
878.892	32.3239
881.785	20.5585
884.678	17.9343
887.57	20.3654
890.463	7.53251
893.356	13.6304
896.249	31.4463
899.141	37.915
902.034	53.2627
904.927	58.1963
907.819	80.4182
910.712	108.941
913.605	111.11
916.497	130.275
919.39	132.343
922.283	151.742
925.176	161.297
928.068	156.104
930.961	165.099
933.854	186.292
936.746	161.129
939.639	147.235
942.532	137.075
945.424	126.397
948.317	119.332
951.21	97.4989
954.102	97.0299
956.995	95.5287
959.888	93.1178
962.781	82.3606
965.673	83.5948
968.566	66.6887
971.459	67.5731
974.351	77.3612
977.244	75.3767
980.137	61.6446
983.029	59.6504
985.922	64.9767
988.815	58.7406
991.708	42.7305
994.6	59.7703
997.493	55.5018
1000.39	39.1549
1003.28	38.4297
1006.17	46.996
1009.06	23.3181
1011.96	27.5598
1014.85	11.8129
1017.74	25.9762
1020.63	21.9163
1023.53	35.1338
1026.42	23.7512
1029.31	31.9174
1032.2	24.3602
1035.1	25.3838
1037.99	25.2443
1040.88	17.5989
1043.78	1.81726
1046.67	11.2356
1049.56	0.106812
1052.45	10.0883
1055.35	30.7124
1058.24	23.2034
1061.13	16.4128
1064.03	2.90967
1066.92	2.73144
1069.81	7.16553
1072.7	1.98975
1075.6	3.29639
1078.49	3.81534
1081.38	12.4648
1084.27	8.32507
1087.17	0.730103
1090.06	16.8706
1092.95	6.2605
1095.85	9.29858
1098.74	6.76965
1101.63	18.2358
1104.52	5.64844
1107.42	8.98718
1110.31	6.51721
1113.2	2.29028
1116.09	11.3643
1118.99	16.9966
1121.88	16.496
1124.77	9.36072
1127.66	3.60376
1130.56	7.55029
1133.45	7.94067
1136.34	15.5049
1139.23	16.3997
1142.13	27.7772
1145.02	29.353
1147.91	32.8452
1150.81	19.8656
1153.7	22.1439
1156.59	12.7567
1159.48	3.99329
1162.38	17.4509
1165.27	12.1528
1168.16	24.9214
1171.06	14.8258
1173.95	2.12219
1176.84	5.55786
1179.73	2.27905
1182.63	13.5601
1185.52	20.2112
1188.41	7.18262
1191.3	10.2589
1194.2	2.9386
1197.09	9.4812
1199.98	27.7004
1202.88	4.81079
1205.77	22.5585
1208.66	15.4292
1211.55	11.1634
1214.44	30.2952
1217.34	14.0576
1220.23	15.301
1223.12	14.3908
1226.02	19.3442
1228.91	35.7294
1231.8	11.1151
1234.69	19.4379
1237.59	1.91553
1240.48	9.97778
1243.37	17.3973
1246.27	0.299561
1249.16	7.10962
1252.05	26.3977
1254.94	15.4332
1257.84	20.5349
1260.73	29.1689
1263.62	4.81677
1266.51	12.2284
1269.41	17.5817
1272.3	8.87012
1275.19	17.8643
1278.09	6.98853
1280.98	11.3914
1283.87	17.9603
1286.76	8.40869
1289.66	5.76831
1292.55	10.9286
1295.44	2.10266
1298.33	9.4596
1301.23	10.5367
1304.12	0
