Measurement: Raman, 780 nm, unoriented, Raman Data Processed
Mineral: Varennesite
Rruff sample: R110194
Ideal chemistry: Na_8_(Mn^2+^,Fe^3+^,Ti^4+^)_2_Si_10_O_25_(OH,Cl)_2_12H_2_O
Locality: Demix-Varennes quarry, Saint-Amable sill, Varennes & St-Amable, Lajemmerais RCM, Monteregie, Quebec, Canada
Source: Donald Doell
Description: Pale to dirty yellow platy
Raman shift (cm-1)	intensity
99.8777	0
103.252	6.08936
106.627	10.3452
110.002	7.99609
113.377	25.2583
116.752	26.8628
120.127	24.1851
123.501	28.7436
126.876	20.2598
130.251	21.5283
133.626	2.27539
137.001	5.39844
140.375	13.4898
143.75	4.30078
147.125	11.3096
150.5	8.59717
153.875	13.5015
157.25	4.01123
160.624	1.83984
163.999	11.021
167.374	9.79395
170.749	3.87647
174.124	3.18701
177.498	4.19287
180.873	5.06738
184.248	18.394
187.623	9.11328
190.998	8.06348
194.373	0.977539
197.747	1.56445
201.122	3.92432
204.497	20.9214
207.872	14.3389
211.247	3.2959
214.621	11.7197
217.996	8.63574
221.371	21.5161
224.746	24.2451
228.121	23.8291
231.495	27.2441
234.87	33.6265
238.245	50.9209
241.62	30.0073
244.995	30.9834
248.369	50.5147
251.744	34.1074
255.119	29.4502
258.494	27.2578
261.869	39.7437
265.244	31.9399
268.618	53.9097
271.993	50.3818
275.368	54.3813
278.743	62.8115
282.118	58.7192
285.493	37.7656
288.867	43.7139
292.242	46.5488
295.617	52.5688
298.992	49.4834
302.366	51.0796
305.741	45.9048
309.116	58.9282
312.491	37.3965
315.866	64.3213
319.241	43.5513
322.615	36.8823
325.99	32.5654
329.365	40.3989
332.74	26.9961
336.115	51.4629
339.49	32.1118
342.864	15.9062
346.239	10.3359
349.614	10.0102
352.989	11.0117
356.364	21.8716
359.738	19.9756
363.113	12.4858
366.488	11.2793
369.863	30.813
373.238	0.102539
376.613	5.8291
379.987	12.0542
383.362	15.2983
386.737	1.98291
390.112	0.729492
393.486	14.854
396.861	2.57617
400.236	4.78027
403.611	2.44678
406.986	1.75732
410.361	2.81543
413.735	8.87402
417.11	8.66211
420.485	25.9082
423.86	10.751
427.235	4.21533
430.61	15.8711
433.984	29.7295
437.359	39.9053
440.734	46.0195
444.109	77.7104
447.484	114.679
450.858	128.699
454.233	147.599
457.608	137.4
460.983	120.718
464.358	98.7344
467.733	71.6313
471.107	54.6416
474.482	38.7988
477.857	25.9116
481.232	21.355
484.606	28.585
487.981	20.0674
491.356	12.5229
494.731	13.6377
498.106	1.88086
501.481	0.018555
504.855	8.39795
508.23	5.02637
511.605	8.34863
514.98	39.0137
518.355	16.252
521.73	18.1694
525.104	16.6348
528.479	29.3013
531.854	9.07422
535.229	16.8286
538.604	24.166
541.978	33.8291
545.353	35.3213
548.728	28.5859
552.103	42.1304
555.478	42.5576
558.852	40.8774
562.227	35.2139
565.602	24.5132
568.977	26.6045
572.352	7.23047
575.726	1.05322
579.101	0.64209
582.476	6.69385
585.851	37.3306
589.226	16.8867
592.601	9.61182
595.975	3.65576
599.35	1.57959
602.725	22.1357
606.1	28.3843
609.475	32.77
612.85	38.0762
616.224	54.9551
619.599	57.7275
622.974	76.0513
626.349	66.9941
629.723	50.3867
633.098	78.8057
636.473	79.5366
639.848	61.2407
643.223	62.5928
646.598	82.0571
649.972	85.3994
653.347	61.1206
656.722	52.1602
660.097	49.6826
663.472	48.9331
666.846	34.8628
670.221	49.9932
673.596	35.8457
676.971	25.352
680.346	14.3159
683.721	14.6255
687.095	18.583
690.47	9.95117
693.845	6.87207
697.22	0.368164
700.595	5.24561
703.97	14.4492
707.344	0.563477
710.719	8.02148
714.094	3.31836
717.469	22.4204
720.843	7.82617
724.218	20.9419
727.593	9.74707
730.968	33.0205
734.343	20.5171
737.718	24.1939
741.092	35.853
744.467	25.1099
747.842	37.9639
751.217	21.7583
754.592	21.8648
757.966	23.5498
761.341	22.1973
764.716	23.0903
768.091	23.8828
771.466	21.9351
774.841	8.17627
778.215	14.7144
781.59	14.1899
784.965	17.8071
788.34	19.354
791.715	35.5508
795.089	23.4766
798.464	17.043
801.839	2.41699
805.214	11.3565
808.589	17.6919
811.963	8.99805
815.338	13.3877
818.713	24.3335
822.088	29.5664
825.463	8.15039
828.838	26.4194
832.212	23.6572
835.587	18.8496
838.962	14.8701
842.337	17.4429
845.712	25.1973
849.087	13.5957
852.461	17.6929
855.836	21.5962
859.211	23.6914
862.586	28.5273
865.961	29.7109
869.335	12.0283
872.71	12.188
876.085	9.89746
879.46	0.327637
882.835	22.2432
886.209	31.1811
889.584	9.0332
892.959	15.3037
896.334	0.024902
899.709	21.0835
903.083	8.77734
906.458	5.14746
909.833	12.897
913.208	2.72803
916.583	25.6943
919.958	12.668
923.332	2.23877
926.707	8.67432
930.082	14.1265
933.457	16.189
936.832	19.0303
940.207	31.0474
943.581	20.477
946.956	16.3403
950.331	11.0156
953.706	23.1851
957.081	22.8467
960.455	23.4863
963.83	26.9658
967.205	62.2935
970.58	55.6362
973.955	73.3584
977.329	110.921
980.704	185.455
984.079	234.263
987.454	273.136
990.829	253.418
994.203	180.833
997.578	102.753
1000.95	45.2046
1004.33	18.5186
1007.7	12.2398
1011.08	3.85107
1014.45	3.11475
1017.83	1.43506
1021.2	1.58447
1024.58	6.37305
1027.95	7.44824
1031.33	0.921875
1034.7	10.7578
1038.08	3.38672
1041.45	4.92529
1044.83	0.63916
1048.2	13.4512
1051.58	7.9541
1054.95	57.5576
1058.33	66.4551
1061.7	54.6543
1065.08	30.854
1068.45	54.2114
1071.82	46.8706
1075.2	62.4937
1078.57	49.0249
1081.95	50.3374
1085.32	55.5942
1088.7	70.8521
1092.07	65.7031
1095.45	49.354
1098.82	32.8872
1102.2	19.8496
1105.57	9.81543
1108.95	16.2129
1112.32	7.92627
1115.7	2.72461
1119.07	11.1997
1122.45	6.61475
1125.82	20.2036
1129.2	2.56592
1132.57	8.97266
1135.95	13.2515
1139.32	32.7031
1142.69	33.4727
1146.07	36.5395
1149.44	44.7139
1152.82	28.7627
1156.19	45.331
1159.57	37.9463
1162.94	47.1313
1166.32	52.7637
1169.69	65.7246
1173.07	88.0293
1176.44	59.5044
1179.82	59.541
1183.19	39.3398
1186.57	54.6543
1189.94	47.1645
1193.32	52.9194
1196.69	57.2866
1200.07	64.1313
1203.44	68.8477
1206.82	36.6435
1210.19	40.8789
1213.57	48.6655
1216.94	44.6362
1220.32	29.937
1223.69	39.2954
1227.07	36.8208
1230.44	5.79297
1233.82	2.1958
1237.19	13.3955
1240.57	4.72363
1243.94	3.1665
1247.32	5.25342
1250.69	8.45215
1254.06	16.6343
1257.44	18.1963
1260.81	11.7441
1264.19	49.9951
1267.56	14.6733
1270.94	29.8369
1274.31	26.0073
1277.69	5.88379
1281.06	10.7412
