Measurement: Raman, 532 nm, unoriented, Raman Data Processed
Mineral: Variscite
Rruff sample: R100222
Ideal chemistry: AlPO_4_2H_2_O
Locality: Canarana, Mato Grosso, Brazil
Source: Luiz Menezes
Description: Green blocky, combination of pseudo-octahedral and pseudo-cubes on quartz
Raman shift (cm-1)	intensity
179.745	0
182.637	1.63428
185.53	6.54297
188.423	43.999
191.315	129.233
194.208	212.648
197.101	285.69
199.994	341.532
202.886	271.94
205.779	240.887
208.672	264.072
211.565	283.163
214.457	323.596
217.35	404.836
220.243	514.511
223.135	719.087
226.028	1004.62
228.921	953.832
231.813	519.786
234.706	322.335
237.599	265.463
240.492	219.062
243.384	196.63
246.277	171.674
249.17	157.772
252.062	175.575
254.955	211.346
257.848	191.398
260.74	178.97
263.633	142.725
266.526	117.113
269.418	111.783
272.311	116.732
275.204	75.3144
278.097	46.2275
280.989	9.49414
283.882	31.3686
286.775	56.0493
289.667	91.79
292.56	129.314
295.453	104.025
298.346	66.1064
301.238	20.1055
304.131	7.57129
307.024	28.1069
309.916	25.0684
312.809	3.42383
315.702	24.0815
318.594	39.834
321.487	49.4512
324.38	92.0322
327.273	139.264
330.165	92.9053
333.058	94.1699
335.951	101.121
338.843	99.2549
341.736	125.972
344.629	137.71
347.522	169.261
350.414	181.568
353.307	146.845
356.2	111.447
359.092	51.3603
361.985	31.6514
364.878	12.5469
367.77	4.15137
370.663	15.6426
373.556	-0.870892
376.449	3.5
379.341	37.0586
382.234	67.5693
385.127	60.8906
388.019	53.5166
390.912	42.5859
393.805	50.2773
396.697	82.5547
399.59	93.6016
402.483	113.665
405.376	138.143
408.268	168.094
411.161	227.727
414.054	355.415
416.946	462.643
419.839	440.283
422.732	466.375
425.625	499.26
428.517	606.436
431.41	736.535
434.303	901.483
437.195	973.547
440.088	875.837
442.981	650.617
445.873	384.596
448.766	231.061
451.659	143.091
454.551	89.8154
457.444	45.085
460.337	34.7969
463.23	22.7324
466.122	24.7178
469.015	24.4639
471.908	20.2344
474.8	34.9863
477.693	34.8037
480.586	44.0195
483.479	22.7129
486.371	2.14453
489.264	5.28418
492.157	0.493164
495.049	8.71973
497.942	13.9131
500.835	21.9443
503.728	2.14258
506.62	23.5693
509.513	9.75879
512.406	26.1973
515.298	68.2744
518.191	40.125
521.084	49.8232
523.976	77.9531
526.869	96.9463
529.762	100.708
532.654	100.606
535.547	113.924
538.44	96.5644
541.333	93.6562
544.225	99.8535
547.118	93.2256
550.011	134.136
552.903	146.123
555.796	148.53
558.689	160.682
561.582	141.783
564.474	148.408
567.367	127.089
570.26	120.474
573.152	89.6592
576.045	65.2227
578.938	32.0928
581.83	25.9658
584.723	29.4971
587.616	85.749
590.509	77.2314
593.401	47.4873
596.294	64.2471
599.187	90.8428
602.079	111.204
604.972	106.119
607.865	122.114
610.758	147.579
613.65	185.098
616.543	129.351
619.436	102.228
622.328	50.4395
625.221	55.7861
628.114	31.417
631.006	18.1475
633.899	10.3252
636.792	11.8262
639.684	43.9131
642.577	53.3623
645.47	41.8672
648.363	18.7617
651.255	23.5107
654.148	41.7969
657.041	42.0244
659.933	68.6269
662.826	35.332
665.719	42.207
668.612	10.5303
671.504	21.3184
674.397	39.6025
677.29	41.543
680.182	22.9375
683.075	53.8574
685.968	53.9336
688.861	64.0986
691.753	65.0303
694.646	22.8643
697.539	47.1377
700.431	52.2803
703.324	58.8057
706.217	71.2617
709.109	53.8467
712.002	49.9287
714.895	59.124
717.788	47.1816
720.68	24.2129
723.573	15.501
726.466	3.34961
729.358	10.5098
732.251	16.5723
735.144	19.6797
738.036	26.7471
740.929	25.9395
743.822	3.05664
746.715	11.9277
749.607	1.89648
752.5	17.0449
755.393	15.0557
758.285	19.4111
761.178	23.3232
764.071	23.3848
766.963	27.0723
769.856	25.2891
772.749	26.3867
775.642	5.32227
778.534	23.0859
781.427	25.665
784.32	30.2549
787.212	22.5947
790.105	28.3428
792.998	29.1611
795.89	28.3008
798.783	58.5977
801.676	74.5127
804.569	46.0684
807.461	30.1113
810.354	32.3613
813.247	41.0713
816.139	35.3174
819.032	39.6523
821.925	49.5361
824.818	30.9258
827.71	17.9053
830.603	43.874
833.496	17.001
836.388	9.0957
839.281	9.40527
842.174	28.3389
845.067	13.9395
847.959	9.93066
850.852	7.60352
853.745	14.7861
856.637	15.0801
859.53	2.58008
862.423	9.09863
865.315	20.5752
868.208	31.9287
871.101	54.7148
873.994	44.8272
876.886	35.7344
879.779	32.4365
882.672	37.666
885.564	2.27246
888.457	1.15723
891.35	5.72754
894.242	2.49316
897.135	6.34961
900.028	17.0928
902.92	31.5879
905.813	44.9766
908.706	41.8066
911.599	28.0264
914.491	26.7764
917.384	52.71
920.277	55.958
923.169	60.0391
926.062	66.1103
928.955	75.1543
931.847	79.75
934.74	102.005
937.633	66.5039
940.526	40.0586
943.418	17.2881
946.311	23.2031
949.204	4.08008
952.096	6.39941
954.989	4.02246
957.882	9.6084
960.775	7.91309
963.667	2.40723
966.56	30.0615
969.453	32.1963
972.345	18.9258
975.238	25.0967
978.131	18.2705
981.024	3.74414
983.916	3.33203
986.809	8.25
989.702	10.1426
992.594	18.9062
995.487	22.5703
998.38	27.2637
1001.27	79.3652
1004.16	67.8574
1007.06	78.4277
1009.95	106.117
1012.84	169.215
1015.74	264.036
1018.63	359.326
1021.52	470.574
1024.41	628.998
1027.31	801.407
1030.2	876.604
1033.09	677.911
1035.98	428.778
1038.88	262.317
1041.77	208.94
1044.66	188.965
1047.56	143.326
1050.45	139.318
1053.34	97.1455
1056.23	97.4238
1059.13	96.335
1062.02	87.7441
1064.91	109.625
1067.81	114.35
1070.7	240.838
1073.59	308.954
1076.48	430.883
1079.38	487.802
1082.27	397.554
1085.16	248.543
1088.05	120.267
1090.95	61.916
1093.84	36.8203
1096.73	10.3359
1099.62	2.19043
1102.52	8.74609
1105.41	12.8154
1108.3	11.4795
1111.19	15.2979
1114.09	4.88477
1116.98	2.33203
1119.87	32.833
1122.77	57.29
1125.66	15.7881
1128.55	25.0234
1131.44	15.1172
1134.34	10.2705
1137.23	8.46973
1140.12	9.33105
1143.02	0.478516
1145.91	8.63867
1148.8	32.2764
1151.69	20.8789
1154.59	13.3262
1157.48	31.4541
1160.37	52.9268
1163.26	64.8506
1166.16	57.9414
1169.05	41.5176
1171.94	34.2793
1174.84	40.5752
1177.73	26.7422
1180.62	16.7666
1183.51	15.4775
1186.4	27.0156
1189.3	22.8652
1192.19	48.2129
1195.08	25.8125
1197.98	41.5732
1200.87	33.3789
1203.76	5.03223
1206.65	19.8965
1209.55	10.499
1212.44	38.4346
1215.33	31.4971
1218.22	21.4824
1221.12	31.0527
1224.01	38.7793
1226.9	31.71
1229.8	12.4815
1232.69	34.1611
1235.58	5.13281
1238.47	1.26758
1241.37	6.39746
1244.26	20.4385
1247.15	36.5947
1250.05	15.3125
1252.94	13.5283
1255.83	2.31543
1258.72	32.7617
1261.62	42.2685
1264.51	27.4834
1267.4	20.4814
1270.29	20.8359
1273.19	41.5234
1276.08	27.3721
1278.97	23.6514
1281.87	35.5635
1284.76	23.8818
1287.65	27.4248
1290.54	31.3652
1293.43	29.3799
1296.33	20.8271
1299.22	26.0107
1302.11	0.22168
