Measurement: Raman, 532 nm, unoriented, Raman Data Processed
Mineral: Vastmanlandite-(Ce)
Rruff sample: R110171
Ideal chemistry: Ce^3+^_3_CaMg_2_Al_2_Si_5_O_19_(OH)_2_F
Locality: Bastnas, Riddarhyttan, Sweden
Source: Bob Jenkins
Description: Pink transparent gemmy massive associated with cerite-(Ce) R060708
Raman shift (cm-1)	intensity
178.72	0
181.612	5.55649
184.505	9.69928
187.398	8.00198
190.29	8.11185
193.183	3.42839
196.076	5.50232
198.968	12.6631
201.861	9.96031
204.754	11.2423
207.647	12.0819
210.539	15.5771
213.432	22.4641
216.325	19.1513
219.217	21.5247
222.11	18.1583
225.003	20.2711
227.895	18.7301
230.788	16.4195
233.681	12.3136
236.573	10.3518
239.466	8.71526
242.359	2.61224
245.252	0.362442
248.144	4.755
251.037	0.111664
253.93	4.38536
256.822	4.35496
259.715	11.3569
262.608	10.9681
265.5	13.5347
268.393	17.0686
271.286	18.464
274.179	26.5174
277.071	29.8955
279.964	26.4422
282.857	27.8654
285.75	21.4725
288.642	21.3199
291.535	22.3451
294.428	14.184
297.32	14.1511
300.213	14.2925
303.106	14.0879
305.998	7.18779
308.891	7.16731
311.784	4.48099
314.676	7.54315
317.569	6.18895
320.462	0.046341
323.355	0.439102
326.247	1.87291
329.14	1.7933
332.033	2.12959
334.925	1.04712
337.818	3.9203
340.711	4.53281
343.603	2.66324
346.496	3.51263
349.389	0.379257
352.281	0.717865
355.174	4.47928
358.067	4.90968
360.96	0.845322
363.852	2.59743
366.745	0.437088
369.638	2.03651
372.53	2.90063
375.423	3.93492
378.316	6.53755
381.209	10.5448
384.101	5.78207
386.994	21.0816
389.887	17.1929
392.779	23.4877
395.672	27.6682
398.565	33.8297
401.457	40.9008
404.35	45.102
407.243	43.0147
410.135	45.6874
413.028	38.315
415.921	43.5147
418.814	38.3598
421.706	34.8085
424.599	40.2923
427.492	39.9686
430.384	43.9854
433.277	39.8476
436.17	44.5579
439.062	44.816
441.955	40.7929
444.848	37.8197
447.741	37.548
450.633	28.1115
453.526	28.4989
456.419	27.2268
459.311	23.4932
462.204	20.0496
465.097	14.8174
467.99	13.7888
470.882	6.13779
473.775	9.56927
476.668	8.07869
479.56	7.897
482.453	8.13908
485.346	5.55679
488.238	10.9912
491.131	11.1496
494.024	12.1508
496.916	12.367
499.809	10.2401
502.702	5.75342
505.595	5.59657
508.487	1.4608
511.38	0.133102
514.273	2.26729
517.165	0.589279
520.058	1.96991
522.951	4.05185
525.844	1.01115
528.736	2.03557
531.629	4.02504
534.522	8.15163
537.414	14.1681
540.307	13.8996
543.2	21.8859
546.092	23.0768
548.985	27.0481
551.878	28.0606
554.771	32.9728
557.663	31.1238
560.556	31.6702
563.449	29.6918
566.341	28.6463
569.234	27.8742
572.127	25.1068
575.019	24.8654
577.912	27.1708
580.805	22.2826
583.697	21.3366
586.59	22.1706
589.483	19.4273
592.376	20.4681
595.268	18.0368
598.161	23.8894
601.054	15.0822
603.946	16.3158
606.839	12.541
609.732	16.2533
612.625	12.6322
615.517	12.4098
618.41	9.11667
621.303	7.98674
624.195	5.8573
627.088	7.3878
629.981	0.312393
632.873	1.81757
635.766	1.71587
638.659	0.546738
641.552	5.40079
644.444	4.18074
647.337	1.40207
650.23	3.03728
653.122	3.06706
656.015	9.75374
658.908	5.80972
661.8	9.98622
664.693	6.27132
667.586	9.59953
670.479	7.18495
673.371	10.2492
676.264	9.63792
679.157	12.2744
682.049	13.2747
684.942	9.57373
687.835	12.0909
690.727	9.83553
693.62	13.6233
696.513	7.54888
699.405	6.87643
702.298	4.42901
705.191	4.0248
708.084	1.2199
710.976	2.32101
713.869	1.29994
716.762	2.28262
719.654	0.385452
722.547	2.41272
725.44	0.948265
728.332	1.34239
731.225	0.640999
734.118	0.079918
737.011	1.88026
739.903	1.06139
742.796	0.276268
745.689	1.16131
748.581	3.99466
751.474	7.2245
754.367	5.65121
757.26	5.05547
760.152	0.872719
763.045	4.93971
765.938	4.15302
768.83	2.06413
771.723	4.09825
774.616	4.14725
777.508	3.29688
780.401	3.20596
783.294	3.39055
786.187	1.69427
789.079	0.25325
791.972	2.45203
794.865	0.296524
797.757	1.7476
800.65	1.21751
803.543	0.089386
806.435	1.37132
809.328	0.238655
812.221	0.805092
815.114	7.06506
818.006	7.46577
820.899	9.28446
823.792	5.26633
826.684	8.71827
829.577	10.0413
832.47	8.9668
835.362	9.06292
838.255	14.4598
841.148	19.277
844.04	22.0314
846.933	24.7998
849.826	32.2903
852.719	39.1901
855.611	43.4254
858.504	44.0095
861.397	48.8096
864.289	46.5804
867.182	42.6102
870.075	40.5293
872.967	44.9068
875.86	41.4614
878.753	43.2978
881.646	47.2996
884.538	47.9539
887.431	50.6525
890.324	51.1925
893.216	53.4861
896.109	50.9995
899.002	46.6483
901.894	45.3708
904.787	35.2755
907.68	31.5854
910.573	26.6696
913.465	24.3506
916.358	19.4025
919.251	14.8087
922.143	11.2663
925.036	9.48791
927.929	5.287
930.822	4.60357
933.714	1.36236
936.607	1.19832
939.5	0.521255
942.392	1.58659
945.285	1.67876
948.178	1.72475
951.07	3.26115
953.963	2.53135
956.856	1.40211
959.749	3.21975
962.641	6.52944
965.534	9.11497
968.427	12.866
971.319	11.6592
974.212	10.5763
977.105	6.20492
979.997	3.58681
982.89	6.31505
985.783	6.25934
988.676	2.82159
991.568	4.21297
994.461	2.59012
997.354	3.80344
1000.25	3.58866
1003.14	5.23657
1006.03	4.88506
1008.92	6.82736
1011.82	5.12249
1014.71	0.798553
1017.6	2.00727
1020.5	2.42654
1023.39	3.1977
1026.28	6.97766
1029.17	7.1062
1032.07	4.56709
1034.96	8.22696
1037.85	10.9862
1040.74	11.3735
1043.64	6.65459
1046.53	8.55012
1049.42	11.5495
1052.32	10.5404
1055.21	8.96501
1058.1	12.9828
1060.99	9.31989
1063.89	10.118
1066.78	5.21199
1069.67	6.00059
1072.56	5.73367
1075.46	4.04633
1078.35	3.26609
1081.24	4.32008
1084.13	4.62193
1087.03	0.158379
1089.92	6.93896
1092.81	2.81276
1095.7	0.086395
1098.6	3.96968
1101.49	2.07481
1104.38	3.80505
1107.28	2.42447
1110.17	0.246338
1113.06	3.31122
1115.95	2.98701
1118.85	3.95877
1121.74	2.47241
1124.63	0.083878
1127.53	0.417114
1130.42	3.61327
1133.31	2.22636
1136.2	3.16006
1139.1	1.98177
1141.99	4.10111
1144.88	3.76447
1147.77	2.0068
1150.67	3.22566
1153.56	2.85694
1156.45	6.90789
1159.35	2.00606
1162.24	5.90175
1165.13	0.067978
1168.02	3.92964
1170.92	4.91215
1173.81	4.86409
1176.7	2.60836
1179.59	2.31375
1182.49	2.72992
1185.38	5.47225
1188.27	5.57454
1191.16	3.30597
1194.06	2.16067
1196.95	2.31379
1199.84	5.09745
1202.73	7.56853
1205.63	5.06865
1208.52	3.1862
1211.41	4.021
1214.31	1.0695
1217.2	5.43853
1220.09	0.598907
1222.98	3.75023
1225.88	1.17234
1228.77	5.28383
1231.66	3.69169
1234.56	5.20597
1237.45	0.85714
1240.34	4.90372
1243.23	0.396759
1246.13	4.05312
1249.02	0.604393
1251.91	4.00781
1254.8	3.49591
1257.7	2.83017
1260.59	3.216
1263.48	2.65295
1266.38	0.013138
1269.27	5.57642
1272.16	4.09206
1275.05	3.19777
1277.95	2.89073
1280.84	4.54736
1283.73	4.97262
1286.62	3.46841
1289.52	2.75008
1292.41	3.28574
1295.3	2.09172
1298.19	1.8382
1301.09	2.04726
