Measurement: Raman, 532 nm, unoriented, Raman Data Processed
Mineral: Vauxite
Rruff sample: R070421
Ideal chemistry: Fe^2+^Al_2_(PO_4_)_2_(OH)_2_6H_2_O
Locality: Llallagua, Bustillos Province, Potosi, Bolivia
Source: James Shigley
Description: Aggregates of pale blue tabular crystals
Measured chemistry: (Fe^2+^_0.98_Mn_0.02_)_Σ=1_Al_2.00_(P_1.00_O_4_)_2_(OH)_2_·5.7H_2_O; OH estimated by charge balance; H_2_O  by difference
Raman shift (cm-1)	intensity
161.012	0
163.904	1.43262
166.797	39.373
169.69	151.665
172.582	341.366
175.475	544.398
178.368	643.216
181.26	729.555
184.153	655.254
187.046	583.691
189.939	512.215
192.831	533.959
195.724	441.312
198.617	432.652
201.509	584.477
204.402	582.904
207.295	565.426
210.187	401.891
213.08	484.102
215.973	357.022
218.865	413.346
221.758	406.348
224.651	396.973
227.544	451.772
230.436	330.91
233.329	343.305
236.222	328.801
239.114	357.877
242.007	235.201
244.9	276.613
247.792	180.658
250.685	161.141
253.578	140.633
256.471	148.773
259.363	183.08
262.256	233.523
265.149	244.391
268.041	178.348
270.934	192.279
273.827	192.998
276.719	250.69
279.612	275.822
282.505	365.949
285.398	228.117
288.29	99.793
291.183	83.7305
294.076	41.0547
296.968	33.8301
299.861	47.6699
302.754	9.12695
305.647	29.8496
308.539	15.9688
311.432	15.002
314.325	65.1191
317.217	210.588
320.11	236.35
323.003	315.088
325.896	399.057
328.788	352.977
331.681	418.213
334.574	371.057
337.466	144.816
340.359	102.856
343.252	73.1113
346.144	85.2207
349.037	8.15234
351.93	48.043
354.822	35.6719
357.715	26.3652
360.608	14.6797
363.501	66.5469
366.393	149.397
369.286	104.982
372.179	98.3242
375.071	44.4902
377.964	120.74
380.857	87.4141
383.75	84.9121
386.642	28.8418
389.535	63.8652
392.428	100.707
395.32	223.369
398.213	148.672
401.106	134.49
403.998	96.4727
406.891	41.166
409.784	25.2734
412.676	93.1113
415.569	140.348
418.462	130.303
421.355	25.8184
424.247	0.058594
427.14	64.5879
430.033	156.17
432.925	70.918
435.818	121.814
438.711	77.1035
441.603	134.734
444.496	256.42
447.389	115.059
450.282	179.887
453.174	149.99
456.067	119.91
458.96	194.031
461.852	165.834
464.745	90.4824
467.638	112.039
470.531	113.842
473.423	31.0312
476.316	28.7344
479.209	85.6445
482.101	131.144
484.994	107.455
487.887	66.7793
490.779	135.891
493.672	175.992
496.565	132.834
499.458	198.725
502.35	85.1582
505.243	87.8359
508.136	69.791
511.028	54.5273
513.921	88.1191
516.814	135.623
519.707	106.971
522.599	246.951
525.492	449.213
528.385	462.029
531.277	946.646
534.17	1123.15
537.063	544.682
539.955	246.502
542.848	175.486
545.741	30.6152
548.634	41.5605
551.526	58.6836
554.419	39.0293
557.312	49.4746
560.204	8.11523
563.097	52.6016
565.99	62.8848
568.882	63.043
571.775	1.92578
574.668	60.6367
577.561	48.0547
580.453	89.1953
583.346	128.668
586.239	21.6602
589.131	77.8438
592.024	37.8398
594.917	85.6641
597.809	107.961
600.702	217.68
603.595	78.3281
606.487	137.352
609.38	220.613
612.273	245.863
615.166	233.148
618.058	260.867
620.951	290.492
623.844	267.152
626.736	237.094
629.629	269.203
632.522	278.766
635.414	309.527
638.307	397.227
641.2	299.859
644.093	413.215
646.985	214.129
649.878	333.086
652.771	293
655.663	222.668
658.556	324.66
661.449	274.477
664.341	227.195
667.234	175.691
670.127	362.445
673.02	182.379
675.912	109.117
678.805	128.398
681.698	2.48047
684.591	160.188
687.483	175.371
690.376	81.5273
693.269	57.293
696.161	229.797
699.054	11.5352
701.947	80.3047
704.839	184.25
707.732	19.457
710.625	37.5625
713.518	42.7148
716.41	85.2539
719.303	79.0469
722.196	94.4141
725.088	72.1758
727.981	61.1523
730.874	127.856
733.766	22.2383
736.659	106.266
739.552	114.668
742.444	40.1602
745.337	68.082
748.23	133.227
751.123	14.5898
754.015	16.7578
756.908	44.0742
759.801	100.602
762.693	165.559
765.586	97.8711
768.479	130.715
771.371	147.758
774.264	175.266
777.157	62.7539
780.05	216.516
782.942	254.856
785.835	213.941
788.728	105.785
791.62	96.6914
794.513	15.6484
797.406	90.5547
800.298	97.75
803.191	65.7969
806.084	147.367
808.977	293.445
811.869	101.09
814.762	250.75
817.655	179.203
820.547	118.035
823.44	198.414
826.333	40.9297
829.226	85.9883
832.118	59.8984
835.011	206.453
837.904	86.9297
840.796	179.422
843.689	111.543
846.582	45.2773
849.474	133.773
852.367	56.6367
855.26	162.629
858.153	108.945
861.045	62.8047
863.938	147.68
866.831	42.6875
869.723	85.5039
872.616	87.5391
875.509	144.324
878.401	174.418
881.294	308.106
884.187	5.50391
887.08	241.734
889.972	136.043
892.865	198.441
895.758	133.277
898.65	210.246
901.543	319.941
904.436	328.031
907.328	187.207
910.221	297.996
913.114	155.09
916.006	180.262
918.899	190.004
921.792	138.043
924.685	9.94922
927.577	26.7734
930.47	48.2695
933.363	27.4766
936.255	54.668
939.148	4.16406
942.041	83.2969
944.933	15.1836
947.826	48.0977
950.719	179.008
953.612	89.2812
956.504	102.078
959.397	212.027
962.29	69.5938
965.182	565.152
968.075	555.688
970.968	557.109
973.861	666.047
976.753	646.047
979.646	493.902
982.539	476.918
985.431	293.152
988.324	236.172
991.217	343.672
994.109	318.184
997.002	558.492
999.895	576.41
1002.79	542.656
1005.68	670.019
1008.57	511.859
1011.47	554.5
1014.36	485.981
1017.25	533.367
1020.14	651.629
1023.04	824.938
1025.93	860.984
1028.82	778.195
1031.71	654.062
1034.61	848.676
1037.5	612.242
1040.39	591.992
1043.29	508.602
1046.18	447.238
1049.07	265.441
1051.96	93.8594
1054.86	73.0039
1057.75	133.391
1060.64	224.562
1063.53	235.363
1066.43	720.949
1069.32	204.238
1072.21	217.258
1075.11	112.051
1078	5
1080.89	67.7891
1083.78	28.6875
1086.68	87.2383
1089.57	137.898
1092.46	127.586
1095.35	31.5156
1098.25	97.6914
1101.14	16.9531
1104.03	194.352
1106.92	234.465
1109.82	19.6445
1112.71	48.0547
1115.6	167.016
1118.5	20.4297
1121.39	175.672
1124.28	4.57422
1127.17	69.6797
1130.07	203.41
1132.96	76.3555
1135.85	309.945
1138.74	178.039
1141.64	251.594
1144.53	477.383
1147.42	351.039
1150.32	385.934
1153.21	497.586
1156.1	478.543
1158.99	330.738
1161.89	387.016
1164.78	358.863
1167.67	252.363
1170.56	385.984
1173.46	47.5039
1176.35	93.2305
1179.24	82.1445
1182.13	213.059
1185.03	154.223
1187.92	59.1641
1190.81	192.82
1193.71	113.336
1196.6	218.562
1199.49	80.4453
1202.38	126.805
1205.28	338.164
1208.17	139.898
1211.06	208.641
1213.95	107.766
1216.85	37.918
1219.74	546.035
1222.63	319.988
1225.53	21.7461
1228.42	111.453
1231.31	112.215
1234.2	146.379
1237.1	60.8398
1239.99	287.512
1242.88	30.625
1245.77	217.516
1248.67	116.25
1251.56	108.504
1254.45	48.5195
1257.35	221.938
1260.24	33.7969
1263.13	64.8789
1266.02	61.6055
1268.92	61.9219
1271.81	46.7656
1274.7	280.793
1277.59	297.641
1280.49	293.562
1283.38	278.59
1286.27	239.269
1289.16	186.594
1292.06	286.117
1294.95	184.969
1297.84	265.703
1300.74	140.867
1303.63	216.016
1306.52	67.1406
1309.41	111.613
1312.31	83.6016
1315.2	161.508
