Measurement: Raman, 780 nm, unoriented, Raman Data Processed
Mineral: Veatchite
Rruff sample: R060348
Ideal chemistry: Sr_2_[B_5_O_8_(OH)]_2_B(OH)_3_H_2_O
Locality: 1360' level, 2S Drift, Billie mine, Death Valley, Inyo County, California, USA
Source: Michael Scott
Description: Transparent white fibrous and platy mass
Measured chemistry: (Sr_1.98_Ca_0.02_)_Σ=2_[B_5_O_8_(OH)]_2_B(OH)_3_·H_2_O; B and H not measured but assumed by stoichiometry
Raman shift (cm-1)	intensity
145.048	0
147.941	1.66476
150.834	3.73541
153.726	1.99801
156.619	3.5432
159.512	2.726
162.404	0.34404
165.297	0.380806
168.19	4.59553
171.083	8.99768
173.975	7.40449
176.868	7.91759
179.761	7.97009
182.653	8.83167
185.546	10.0907
188.439	7.08709
191.331	8.32248
194.224	3.06945
197.117	0.727501
200.01	0.166611
202.902	0.789276
205.795	3.64931
208.688	1.28572
211.58	2.4013
214.473	1.86059
217.366	0.293999
220.258	5.13977
223.151	1.63156
226.044	3.63604
228.936	6.65424
231.829	6.02346
234.722	8.01931
237.615	4.6287
240.507	11.1613
243.4	9.84641
246.293	8.69962
249.185	7.09618
252.078	3.64105
254.971	4.00729
257.863	6.70894
260.756	6.70676
263.649	3.90619
266.542	6.09628
269.434	11.8655
272.327	13.1199
275.22	21.014
278.112	22.3831
281.005	30.7029
283.898	39.4282
286.791	40.9058
289.683	37.6562
292.576	20.2288
295.469	10.8014
298.361	5.59879
301.254	1.55309
304.147	3.57075
307.039	1.86334
309.932	0.981979
312.825	7.12994
315.717	4.10982
318.61	3.7416
321.503	2.46302
324.396	1.46127
327.288	2.27899
330.181	3.9084
333.074	7.25419
335.966	3.20327
338.859	8.94853
341.752	10.5033
344.644	15.6907
347.537	13.4773
350.43	9.62316
353.323	16.1083
356.215	15.0709
359.108	14.1097
362.001	9.51365
364.893	11.3644
367.786	7.21952
370.679	3.46877
373.572	1.05601
376.464	1.93991
379.357	3.80136
382.25	3.53472
385.142	1.07034
388.035	5.22549
390.928	6.80817
393.82	7.46239
396.713	3.2562
399.606	6.02319
402.498	10.1223
405.391	8.90274
408.284	16.043
411.177	9.32152
414.069	8.8558
416.962	2.53982
419.855	1.6707
422.747	2.73812
425.64	2.14427
428.533	1.86075
431.425	2.12373
434.318	2.11067
437.211	1.86558
440.104	5.15717
442.996	4.899
445.889	15.2058
448.782	13.3378
451.674	16.5385
454.567	21.5425
457.46	30.9123
460.353	40.3966
463.245	47.5475
466.138	27.4338
469.031	24.517
471.923	23.2024
474.816	28.6415
477.709	30.4639
480.601	22.9051
483.494	15.5101
486.387	10.046
489.279	12.7445
492.172	19.4876
495.065	23.8681
497.958	25.2842
500.85	11.4083
503.743	12.6003
506.636	9.17608
509.528	12.725
512.421	4.55056
515.314	4.23283
518.207	4.87977
521.099	1.53932
523.992	0.735319
526.885	1.53249
529.777	1.51747
532.67	6.84754
535.563	3.16971
538.455	1.97795
541.348	3.34603
544.241	6.5164
547.134	5.06258
550.026	11.8178
552.919	5.42389
555.812	12.8024
558.704	10.5512
561.597	10.1596
564.49	13.4747
567.382	10.0481
570.275	4.07825
573.168	2.60404
576.061	0.207001
578.953	2.91012
581.846	3.37843
584.739	2.20079
587.631	2.85006
590.524	6.58697
593.417	13.4663
596.309	17.3974
599.202	16.8402
602.095	27.1729
604.987	25.3092
607.88	27.3413
610.773	13.2846
613.666	9.81927
616.558	6.94332
619.451	6.06537
622.344	5.30529
625.236	7.72638
628.129	4.47906
631.022	8.6279
633.915	3.42628
636.807	1.93605
639.7	2.36929
642.593	4.67651
645.485	1.85423
648.378	6.37521
651.271	1.46542
654.163	2.5021
657.056	4.56898
659.949	6.77576
662.842	0.444651
665.734	5.39952
668.627	5.05362
671.52	4.69091
674.412	6.35818
677.305	3.83214
680.198	3.00212
683.091	3.37437
685.983	3.57819
688.876	1.9454
691.769	4.80596
694.661	0.602974
697.554	2.03422
700.447	5.06046
703.339	5.22989
706.232	2.66077
709.125	3.08367
712.018	5.11089
714.91	3.9662
717.803	3.26752
720.696	2.08401
723.588	2.64947
726.481	2.59568
729.374	6.19317
732.266	6.61046
735.159	4.0446
738.052	3.63211
740.944	8.29078
743.837	9.90253
746.73	13.0961
749.623	20.913
752.515	27.2716
755.408	29.2141
758.301	29.8603
761.193	36.2799
764.086	37.5159
766.979	28.9686
769.871	20.2947
772.764	11.2113
775.657	6.44611
778.55	7.57791
781.442	4.83823
784.335	2.55124
787.228	2.33787
790.12	3.22673
793.013	1.01647
795.906	1.29576
798.798	2.90345
801.691	3.60882
804.584	4.23741
807.477	9.1181
810.369	9.54195
813.262	4.50319
816.155	10.0757
819.047	7.72058
821.94	9.62948
824.833	8.42341
827.726	7.7256
830.618	8.43908
833.511	9.73527
836.404	6.89132
839.296	13.8589
842.189	12.0194
845.082	11.518
847.974	18.1391
850.867	19.0082
853.76	14.8306
856.653	8.20898
859.545	6.78045
862.438	7.70995
865.331	4.22913
868.223	4.06278
871.116	1.12704
874.009	1.39657
876.901	2.87588
879.794	3.00712
882.687	7.26498
885.58	11.7958
888.472	17.7055
891.365	25.8686
894.258	28.5928
897.15	25.7801
900.043	14.6212
902.936	10.8676
905.828	8.12656
908.721	0.637201
911.614	1.1036
914.506	0.149084
917.399	5.89165
920.292	0.298025
923.185	2.83948
926.077	4.19527
928.97	7.66559
931.863	4.97677
934.755	9.47946
937.648	8.72893
940.541	3.4097
943.433	3.92854
946.326	2.21207
949.219	5.04904
952.112	1.453
955.004	4.27198
957.897	5.19475
960.79	4.43677
963.682	5.24708
966.575	6.53104
969.468	6.43905
972.361	7.88743
975.253	8.43651
978.146	6.56131
981.039	7.05777
983.931	3.67209
986.824	2.29059
989.717	2.99999
992.609	0.145609
995.502	1.20676
998.395	1.55606
1001.29	3.25086
1004.18	5.28112
1007.07	5.83716
1009.97	0.876051
1012.86	0.898918
1015.75	2.20277
1018.64	3.3779
1021.54	3.31709
1024.43	3.33759
1027.32	0.05621
1030.21	5.77755
1033.11	4.68269
1036	2.53192
1038.89	4.52287
1041.79	0.137456
1044.68	4.07747
1047.57	4.5243
1050.46	1.82503
1053.36	7.56165
1056.25	3.5837
1059.14	2.39233
1062.03	4.56845
1064.93	5.86361
1067.82	4.8288
1070.71	4.53665
1073.61	4.58561
1076.5	7.55412
1079.39	3.23014
1082.28	5.18102
1085.18	0.17592
1088.07	5.67046
1090.96	1.55463
1093.85	4.87247
1096.75	1.50379
1099.64	4.23882
1102.53	2.33368
1105.42	2.27181
1108.32	6.58344
1111.21	6.75013
1114.1	5.44472
1116.99	5.76379
1119.89	1.4517
1122.78	6.70948
1125.67	2.81062
1128.57	9.86875
1131.46	2.65094
1134.35	7.14022
1137.24	1.47076
1140.14	8.46736
1143.03	5.37137
1145.92	5.31487
1148.82	7.98517
1151.71	8.47555
1154.6	3.44143
1157.49	2.80859
1160.39	3.77496
1163.28	7.90435
1166.17	10.2783
1169.06	4.67476
1171.96	6.66814
1174.85	0.832326
1177.74	7.07247
1180.63	5.79515
1183.53	5.33926
1186.42	0.184298
1189.31	3.83312
1192.21	1.57344
1195.1	3.68626
1197.99	2.91153
1200.88	3.60327
1203.78	7.48342
1206.67	3.10886
1209.56	0.269258
1212.45	2.05515
1215.35	5.89543
1218.24	5.83481
1221.13	7.47461
1224.03	2.97306
1226.92	8.32005
1229.81	4.50037
1232.7	4.56464
1235.6	9.79792
1238.49	7.6441
1241.38	1.2648
1244.27	5.25875
1247.17	7.89355
1250.06	6.25274
1252.95	1.27225
1255.85	3.74231
1258.74	4.75973
1261.63	1.61983
1264.52	1.60003
1267.42	3.93775
1270.31	2.88447
1273.2	4.72699
1276.09	6.69348
1278.99	0.5183
1281.88	6.8235
1284.77	2.87392
