Measurement: Raman, 532 nm, unoriented, Raman Data Processed
Mineral: Veenite
Rruff sample: R130407
Ideal chemistry: Pb^2+^_2_Sb^3+^_2_S^2-^_5_
Locality: Madoc, Ontario, Canada
Source: Rock Currier
Description: Steel gray metallic massive with red internal reflections, associated with boulangerite, reddish-brown sphalerite, and calcite
Measured chemistry: (Pb_1.94_Ag_0.01_)_Σ1.95_(Sb_1.13_As_0.87_)_Σ2.00_S_5.00
Raman shift (cm-1)	intensity
182.41	0
185.303	0.58934
188.196	1.93224
191.088	2.08014
193.981	3.30202
196.874	5.22374
199.766	5.65826
202.659	7.60303
205.552	9.57568
208.445	10.0341
211.337	11.2094
214.23	9.70919
217.123	10.1943
220.015	12.0168
222.908	11.7956
225.801	10.9755
228.693	11.1964
231.586	8.71446
234.479	8.62785
237.371	9.63129
240.264	9.49932
243.157	8.50277
246.05	7.83128
248.942	7.90027
251.835	6.53918
254.728	7.19564
257.62	7.11459
260.513	7.46967
263.406	8.16515
266.298	8.58412
269.191	8.27826
272.084	6.94508
274.977	4.44032
277.869	4.02655
280.762	2.92007
283.655	2.05629
286.547	0.534729
289.44	0.866079
292.333	0.389782
295.226	0.395008
298.118	0.647369
301.011	0.425318
303.904	0.575691
306.796	0.651968
309.689	3.26588
312.582	3.45609
315.474	3.82084
318.367	4.9878
321.26	4.31367
324.152	4.87569
327.045	5.77578
329.938	5.46273
332.831	5.24149
335.723	5.00118
338.616	4.64267
341.509	3.71992
344.401	1.08016
347.294	0.002611
350.187	0.157864
353.079	0.105947
355.972	0.224879
358.865	0.063265
361.758	0.591133
364.65	0.348745
367.543	0.071627
370.436	0.518527
373.328	0.427402
376.221	0.182302
379.114	0.526491
382.007	0.0177
384.899	0.480699
387.792	0.704019
390.685	1.08079
393.577	1.35679
396.47	0.777933
399.363	1.12189
402.255	0.832257
405.148	1.53914
408.041	1.24478
410.933	2.30936
413.826	1.16454
416.719	1.52507
419.612	1.5514
422.504	0.75319
425.397	1.27615
428.29	1.53858
431.182	1.43838
434.075	0.408274
436.968	0.93853
439.861	1.0125
442.753	1.00625
445.646	1.05759
448.539	1.50211
451.431	1.40388
454.324	0.973405
457.217	0.386045
460.109	0.737971
463.002	0.649021
465.895	0.210378
468.788	0.465261
471.68	1.78191
474.573	0.911354
477.466	0.853437
480.358	0.789188
483.251	0.231655
486.144	0.411242
489.036	1.46266
491.929	0.876543
494.822	0.73244
497.714	0.350912
500.607	0.292123
503.5	0.051103
506.393	0.473588
509.285	0.660655
512.178	0.874568
515.071	0.24274
517.963	1.06854
520.856	0.352672
523.749	0.890143
526.641	0.322506
529.534	0.996458
532.427	0.941396
535.32	0.377327
538.212	0.510608
541.105	0.041405
543.998	0.306677
546.89	0.185956
549.783	0.351975
552.676	0.606429
555.568	0.468136
558.461	0.685688
561.354	0.332269
564.247	0.85415
567.139	0.787726
570.032	1.07506
572.925	0.584517
575.817	0.747582
578.71	1.02705
581.603	0.708529
584.495	0.46536
587.388	0.079631
590.281	0.373908
593.174	0.754921
596.066	0.872819
598.959	1.33335
601.852	0.121857
604.744	0.957865
607.637	0.453428
610.53	0.136063
613.423	0.417427
616.315	0.790679
619.208	0.297005
622.101	0.467302
624.993	0.095841
627.886	0.81651
630.779	0.019922
633.671	0.615625
636.564	0.31706
639.457	0.453255
642.35	0.880303
645.242	1.05775
648.135	0.513469
651.028	0.982309
653.92	0.648243
656.813	0.455088
659.706	0.85426
662.598	0.275584
665.491	0.806882
668.384	0.748284
671.277	0.764017
674.169	0.378823
677.062	0.532007
679.955	0.557659
682.847	0.20011
685.74	0.496284
688.633	0.173457
691.525	0.725824
694.418	0.665053
697.311	0.807562
700.203	0.232452
703.096	0.122094
705.989	1.10754
708.882	0.765298
711.774	0.212094
714.667	0.244429
717.56	1.25134
720.452	0.297931
723.345	0.467342
726.238	0.182455
729.13	0.803436
732.023	0.188097
734.916	0.449141
737.809	0.694468
740.701	0.226957
743.594	0.212536
746.487	0.798823
749.379	0.749472
752.272	1.26077
755.165	0.128995
758.058	0.974232
760.95	0.114042
763.843	0.64437
766.736	0.24525
769.628	0.094444
772.521	0.246231
775.414	0.419025
778.306	0.987037
781.199	1.09201
784.092	0.178911
786.985	1.21354
789.877	0.391451
792.77	0.747842
795.663	0.62641
798.555	0.437559
801.448	1.136
804.341	0.593978
807.233	0.935102
810.126	1.10064
813.019	0.810692
815.912	1.00035
818.804	0.870322
821.697	1.75499
824.59	0.600139
827.482	1.30652
830.375	1.28721
833.268	1.03885
836.16	1.17796
839.053	0.772406
841.946	1.68121
844.838	2.04831
847.731	1.49452
850.624	1.70482
853.517	1.18443
856.409	1.66589
859.302	1.00343
862.195	1.31733
865.087	1.25037
867.98	1.62733
870.873	1.69514
873.765	0.777628
876.658	1.1534
879.551	0.864831
882.444	0.907048
885.336	0.813011
888.229	0.679104
891.122	0.547911
894.014	0.350855
896.907	0.569814
899.8	0.359306
902.692	0.908834
905.585	0.042857
908.478	0.246781
911.371	0.491735
914.263	0.248702
917.156	0.045023
920.049	0.273362
922.941	0.652967
925.834	0.183415
928.727	0.165282
931.62	0.233665
934.512	0.316651
937.405	0.978346
940.298	0.771637
943.19	0.641212
946.083	0.535275
948.976	0.185229
951.868	0.039677
954.761	0.280029
957.654	0.480214
960.547	0.510735
963.439	0.70239
966.332	0.841921
969.225	0.619671
972.117	0.401251
975.01	0.63478
977.903	0.487594
980.795	0.77977
983.688	0.572493
986.581	0.457516
989.473	0.030784
992.366	0.091564
995.259	0.2993
998.152	1.40256
1001.04	0.242989
1003.94	0.086464
1006.83	0.552395
1009.72	0.796003
1012.62	0.654408
1015.51	0.412548
1018.4	1.06723
1021.29	0.32979
1024.19	0.527307
1027.08	0.639119
1029.97	0.25991
1032.86	0.749737
1035.76	0.894393
1038.65	1.09839
1041.54	0.101798
1044.43	0.767029
1047.33	0.26247
1050.22	0.348476
1053.11	0.904932
1056.01	1.02699
1058.9	0.501233
1061.79	0.792286
1064.68	0.967737
1067.58	0.637097
1070.47	0.196308
1073.36	0.477686
1076.26	0.367222
1079.15	0.10751
1082.04	0.229526
1084.93	0.395983
1087.83	0.882315
1090.72	0.949121
1093.61	1.08367
1096.5	0.164816
1099.4	0.98009
1102.29	0.654383
1105.18	0.767043
1108.07	0.886508
1110.97	0.347795
1113.86	0.861661
1116.75	0.691305
1119.64	0.943799
1122.54	0.737465
1125.43	0.70323
1128.32	0.322423
1131.22	1.10182
1134.11	0.231423
1137	0.910927
1139.89	0.257477
1142.79	1.22743
1145.68	0.309359
1148.57	0.610318
1151.46	1.33663
1154.36	0.632813
1157.25	0.463912
1160.14	1.25521
1163.04	0.133699
1165.93	0.837482
1168.82	0.57284
1171.71	0.182649
1174.61	0.618244
1177.5	0.055974
1180.39	0.806091
1183.28	0.338188
1186.18	1.16779
1189.07	0.14495
1191.96	0.225948
1194.86	0.853019
1197.75	0.149544
1200.64	0.518302
1203.53	1.33943
1206.43	0.462433
1209.32	0.798152
1212.21	0.456551
1215.1	0.515145
1218	0.010179
1220.89	0.052206
1223.78	0.446799
1226.67	0.453491
1229.57	1.05534
1232.46	1.23814
1235.35	0.551239
1238.25	0.92487
1241.14	0.76007
1244.03	1.08775
1246.92	0.933706
1249.82	0.390702
1252.71	0.885561
1255.6	1.30583
1258.49	0.252576
1261.39	0.453799
1264.28	0.505483
1267.17	0.153305
1270.07	0.561082
1272.96	0.733265
1275.85	0.727492
1278.74	0.192217
1281.64	0.557199
1284.53	0.626605
1287.42	0.277285
1290.31	0.661275
1293.21	0.20156
1296.1	0.189372
1298.99	0.328538
1301.88	0
