Measurement: Raman, 780 nm, unoriented, Raman Data Processed
Mineral: Vermiculite
Rruff sample: R050490
Ideal chemistry: Mg_0.7_(Mg,Fe^3+^,Al)_6_(Si,Al)_8_O_20_(OH)_4_8H_2_O
Locality: near Tonopah, Nevada, USA
Source: California Institute of Technology
Description: Dark green micaceous fragment
Measured chemistry: (Mg_2.26_Fe^3+^_0.25_Al_0.25_Ca_0.24_)_Σ=3_(Si_3.50_Al_0.50_)_Σ=4_O_10_((OH)_1.90_F_0.10_)_Σ=2_·4H_2_O
Raman shift (cm-1)	intensity
140.549	0
143.441	2.89893
146.334	4.32471
149.227	1.65607
152.119	2.01013
155.012	5.76587
157.905	3.6391
160.798	2.21509
163.69	3.94983
166.583	8.79474
169.476	11.7109
172.368	12.4963
175.261	17.0133
178.154	20.6252
181.046	25.8163
183.939	33.8795
186.832	34.761
189.725	43.3065
192.617	39.308
195.51	37.4705
198.403	31.3282
201.295	23.1598
204.188	19.6329
207.081	12.7067
209.973	9.61572
212.866	3.57336
215.759	1.40936
218.651	0.817566
221.544	0.303711
224.437	1.25201
227.33	0.634702
230.222	-0.20809
233.115	0.635519
236.008	-0.0970373
238.9	0.603362
241.793	0.393884
244.686	0.132947
247.578	2.1889
250.471	4.40654
253.364	4.66156
256.257	4.87391
259.149	8.26971
262.042	13.4906
264.935	18.5816
267.827	16.4843
270.72	17.3877
273.613	18.4528
276.506	15.7058
279.398	14.8214
282.291	11.3189
285.184	7.86978
288.076	6.22363
290.969	5.18047
293.862	3.64341
296.755	1.89487
299.647	1.26611
302.54	2.94293
305.433	1.97278
308.325	0.498413
311.218	0.930298
314.111	1.79596
317.003	1.76685
319.896	5.36993
322.789	6.26953
325.682	7.74695
328.574	12.2924
331.467	16.0344
334.36	16.5778
337.252	22.6233
340.145	33.2652
343.038	32.0172
345.93	35.9758
348.823	42.5867
351.716	42.5289
354.608	41.3923
357.501	38.5022
360.394	34.3524
363.287	31.1437
366.179	23.7097
369.072	17.4274
371.965	17.4092
374.857	11.8577
377.75	6.71643
380.643	5.6203
383.536	2.60443
386.428	0.5177
389.321	1.94354
392.214	1.39099
395.106	0.781677
397.999	1.19299
400.892	1.38812
403.784	2.46472
406.677	2.14484
409.57	5.69299
412.462	5.724
415.355	7.0918
418.248	10.0326
421.141	10.4744
424.033	14.6919
426.926	15.963
429.819	12.8396
432.712	13.4108
435.604	12.8942
438.497	14.2905
441.39	8.38654
444.282	6.76776
447.175	5.29114
450.068	4.117
452.96	3.4668
455.853	3.23633
458.746	3.59296
461.639	0.885864
464.531	2.15094
467.424	1.33337
470.317	1.45813
473.209	0.887573
476.102	0.012634
478.995	1.38477
481.887	1.98669
484.78	3.0929
487.673	5.38196
490.565	9.95184
493.458	11.985
496.351	12.9479
499.244	18.0656
502.136	18.1221
505.029	21.3683
507.922	25.901
510.814	28.2678
513.707	32.411
516.6	32.5436
519.492	37.8875
522.385	38.4235
525.278	45.846
528.171	43.4218
531.063	48.2662
533.956	45.5557
536.849	49.3849
539.741	47.1564
542.634	47.5092
545.527	41.0331
548.42	40.1597
551.312	35.2444
554.205	32.3226
557.098	30.1484
559.99	25.7071
562.883	25.7852
565.776	17.417
568.668	11.4839
571.561	11.7915
574.454	8.47809
577.347	5.98267
580.239	5.28033
583.132	5.90485
586.025	1.05554
588.917	0.669617
591.81	0.63324
594.703	0.02948
597.596	0.176453
600.488	0.452209
603.381	1.97491
606.274	0.450806
609.166	2.24249
612.059	1.03137
614.952	1.21399
617.844	0.368774
620.737	3.46643
623.63	3.76056
626.523	3.81531
629.415	4.30615
632.308	6.33032
635.201	5.79675
638.093	9.17371
640.986	13.0812
643.879	14.8836
646.771	17.5727
649.664	22.2166
652.557	29.2577
655.449	33.7158
658.342	36.3192
661.235	45.6339
664.128	50.8047
667.02	57.0159
669.913	57.4991
672.806	58.3227
675.698	55.7883
678.591	48.9647
681.484	50.8549
684.376	42.1144
687.269	37.7031
690.162	34.3473
693.055	28.4097
695.947	21.9357
698.84	18.0172
701.733	18.0541
704.625	14.0496
707.518	10.6824
710.411	7.7348
713.303	7.63202
716.196	3.01856
719.089	2.95038
721.982	1.44714
724.874	1.36169
727.767	0.01825
730.66	0.678467
733.552	4.94843
736.445	0.889038
739.338	0.949951
742.231	2.71252
745.123	0.348389
748.016	5.04535
750.909	2.68054
753.801	1.09998
756.694	3.04974
759.587	1.48004
762.48	0.306519
765.372	2.39264
768.265	3.34613
771.158	7.1004
774.05	4.75491
776.943	1.50674
779.836	0.334961
782.728	3.18021
785.621	2.72189
788.514	0.553711
791.407	0.403992
794.299	6.28476
797.192	6.32278
800.085	0.021576
802.977	0.024414
805.87	1.01425
808.763	3.31751
811.655	1.88513
814.548	1.12476
817.441	1.47083
820.333	4.33106
823.226	6.3457
826.119	3.83249
829.012	0.82843
831.904	1.45529
834.797	1.47321
837.69	3.58035
840.582	3.38565
843.475	6.99518
846.368	4.65951
849.261	1.68024
852.153	2.05389
855.046	2.14648
857.939	4.16614
860.831	5.56949
863.724	4.82199
866.617	5.41693
869.51	7.8602
872.402	3.15604
875.295	3.95401
878.188	6.71905
881.08	1.61884
883.973	2.81302
886.866	6.57461
889.758	2.62225
892.651	1.26502
895.544	2.5108
898.437	1.29672
901.329	3.43195
904.222	0.140228
907.115	2.34796
910.007	4.35916
912.9	0.950897
915.793	0.917053
918.685	2.29745
921.578	4.34924
924.471	0.532532
927.364	2.35712
930.256	4.96796
933.149	1.12366
936.042	0.870594
938.934	2.30393
941.827	4.56668
944.72	3.48157
947.612	0.036682
950.505	1.86893
953.398	2.76382
956.29	1.86551
959.183	0.156006
962.076	3.64798
964.969	1.86804
967.861	1.09561
970.754	4.37472
973.647	3.33948
976.539	0.946259
979.432	1.40399
982.325	2.81647
985.217	2.46435
988.11	0.768646
991.003	1.892
993.896	1.62509
996.788	4.63727
999.681	3.90622
1002.57	4.86868
1005.47	4.50385
1008.36	4.21332
1011.25	2.94772
1014.14	2.95035
1017.04	4.45261
1019.93	6.09528
1022.82	6.59854
1025.71	2.56702
1028.61	4.52725
1031.5	4.05914
1034.39	6.26953
1037.29	4.71426
1040.18	9.80923
1043.07	8.76605
1045.96	12.1228
1048.86	7.1214
1051.75	8.38058
1054.64	5.73694
1057.54	7.9093
1060.43	11.8087
1063.32	13.4793
1066.21	10.9059
1069.11	11.7336
1072	12.8213
1074.89	10.3399
1077.78	9.54706
1080.68	7.97775
1083.57	10.6264
1086.46	12.7465
1089.36	10.504
1092.25	8.95395
1095.14	12.5653
1098.03	4.32941
1100.93	1.54343
1103.82	6.42624
1106.71	5.76135
1109.6	5.96903
1112.5	7.5379
1115.39	0.323303
1118.28	0.407349
1121.17	2.66971
1124.07	2.52316
1126.96	1.09531
1129.85	1.73941
1132.74	0.087891
1135.64	0.273102
1138.53	1.48355
1141.42	5.48312
1144.32	1.66476
1147.21	3.01468
1150.1	4.83078
1152.99	2.07907
1155.89	6.8476
1158.78	3.44763
1161.67	0.958801
1164.57	1.33743
1167.46	1.75729
1170.35	4.3757
1173.24	4.21066
1176.14	3.62677
1179.03	5.92932
1181.92	6.86414
1184.81	4.39468
1187.71	2.46835
1190.6	1.61176
1193.49	4.16376
1196.38	4.74176
1199.28	6.12765
1202.17	3.84381
1205.06	2.43286
1207.96	3.81836
1210.85	4.17764
1213.74	3.1832
1216.63	1.97705
1219.53	2.49451
1222.42	3.26679
1225.31	7.03271
1228.2	7.34347
1231.1	2.89813
1233.99	0.894135
1236.88	0.551361
1239.78	4.90485
1242.67	0.476227
1245.56	5.12857
1248.45	4.13715
1251.35	2.80078
1254.24	2.27277
1257.13	0.562378
1260.02	1.91043
1262.92	9.44077
1265.81	5.99289
1268.7	4.24234
1271.6	2.00265
1274.49	0.740082
1277.38	1.23093
1280.27	1.50275
1283.17	2.20828
1286.06	3.29392
