Measurement: Raman, 532 nm, unoriented, Raman Data Processed
Mineral: Vernadite
Rruff sample: R080100
Ideal chemistry: (Mn^4+^,Fe^3+^,Ca,Na)(O,OH)_2_nH_2_O
Locality: Serra Branca pegmatite, Pedra Lavrada, Para√≠ba, Brazil
Source: Michael Scott
Description: Black rounded or globular micro grains, associated with serrabrancaite, R080077
Raman shift (cm-1)	intensity
150.69	0
153.582	0.579881
156.475	0.918148
159.368	1.72059
162.26	3.22641
165.153	4.45391
168.046	5.92312
170.939	9.33182
173.831	9.21008
176.724	10.4537
179.617	12.363
182.509	11.2081
185.402	10.4817
188.295	9.20172
191.187	7.51116
194.08	6.84404
196.973	5.23129
199.865	5.48952
202.758	4.71848
205.651	3.4851
208.544	3.04784
211.436	2.11455
214.329	2.02474
217.222	0.029411
220.114	0.379693
223.007	0.484972
225.9	0.278615
228.792	0.255967
231.685	0.10195
234.578	0.017141
237.471	0.926445
240.363	1.92775
243.256	2.65386
246.149	3.36118
249.041	4.02588
251.934	4.4073
254.827	5.7786
257.719	7.06734
260.612	7.47803
263.505	8.59108
266.398	10.5761
269.29	12.9062
272.183	11.305
275.076	11.8154
277.968	12.7878
280.861	12.2679
283.754	10.9775
286.647	9.88666
289.539	9.31476
292.432	7.63747
295.325	5.13779
298.217	3.92489
301.11	5.11213
304.003	3.05178
306.895	3.34815
309.788	2.53519
312.681	2.58281
315.574	0.822491
318.466	1.077
321.359	0.964588
324.252	1.08494
327.144	0.051372
330.037	0.645219
332.93	0.570168
335.822	0.649051
338.715	0.084493
341.608	0.027389
344.5	0.188824
347.393	0.4316
350.286	1.75708
353.179	2.28607
356.071	2.90231
358.964	2.90802
361.857	3.76906
364.75	4.30188
367.642	4.27513
370.535	4.75773
373.428	4.81757
376.32	4.6797
379.213	5.03386
382.106	5.24135
384.998	4.17553
387.891	3.45207
390.784	3.31861
393.676	3.01016
396.569	1.96454
399.462	1.29851
402.355	0.312602
405.247	1.21013
408.14	0.487171
411.033	0.049396
413.925	0.118395
416.818	0.707094
419.711	0.157765
422.603	0.18443
425.496	0.318193
428.389	0.093599
431.282	0.198947
434.174	0.320154
437.067	0.038531
439.96	0.812997
442.852	0.003334
445.745	1.12973
448.638	2.57307
451.531	1.94424
454.423	3.60864
457.316	4.48349
460.209	5.15395
463.101	5.1506
465.994	5.72154
468.887	5.70192
471.779	6.21342
474.672	6.47217
477.565	8.49762
480.457	8.20472
483.35	9.67701
486.243	10.7333
489.136	11.4329
492.028	13.4333
494.921	14.5227
497.814	16.4335
500.706	16.8353
503.599	16.185
506.492	16.1412
509.385	15
512.277	12.6209
515.17	9.57519
518.063	6.71418
520.955	4.37023
523.848	2.55739
526.741	0.606522
529.633	0.643652
532.526	0.254221
535.419	0.062132
538.312	0.214733
541.204	0.939893
544.097	0.593864
546.99	2.77418
549.882	5.24084
552.775	8.72184
555.668	11.1074
558.56	14.4176
561.453	17.1572
564.346	20.5711
567.239	22.4989
570.131	23.5774
573.024	23.6328
575.917	22.31
578.809	19.6413
581.702	16.8018
584.595	13.4537
587.487	9.31731
590.38	7.57775
593.273	5.71009
596.165	5.25723
599.058	4.94332
601.951	4.56228
604.844	5.97795
607.736	6.27772
610.629	7.77352
613.522	7.80678
616.414	9.16965
619.307	10.721
622.2	10.8238
625.092	11.6528
627.985	11.2832
630.878	11.3651
633.771	10.6062
636.663	10.3439
639.556	10.178
642.449	8.18806
645.341	7.78781
648.234	6.31431
651.127	5.41913
654.019	4.16005
656.912	4.60203
659.805	3.71979
662.698	3.79362
665.59	2.03485
668.483	1.57227
671.376	0.646517
674.268	0.92722
677.161	0.85002
680.054	0.70767
682.947	0.003896
685.839	0.217995
688.732	0.30095
691.625	0.095607
694.517	0.486818
697.41	0.45551
700.303	0.487846
703.195	0.318305
706.088	0.418661
708.981	0.158021
711.874	0.932929
714.766	1.79623
717.659	0.605312
720.552	2.53617
723.444	2.34961
726.337	3.09213
729.23	2.86937
732.122	3.5952
735.015	3.66433
737.908	3.57724
740.801	3.67116
743.693	3.49607
746.586	3.88264
749.479	3.7796
752.371	3.2066
755.264	1.43603
758.157	2.63954
761.049	1.79692
763.942	2.33377
766.835	1.25621
769.727	1.06116
772.62	1.06471
775.513	0.950953
778.406	0.766877
781.298	0.151333
784.191	0.372048
787.084	0.056846
789.976	0.18803
792.869	0.233212
795.762	0.109296
798.654	0.276063
801.547	0.260295
804.44	0.99571
807.333	0.499067
810.225	0.72093
813.118	0.548676
816.011	0.495636
818.903	1.30671
821.796	1.11706
824.689	1.16664
827.582	1.21195
830.474	1.45888
833.367	1.54061
836.26	1.37649
839.152	1.63771
842.045	1.50701
844.938	1.26034
847.83	1.25242
850.723	2.09672
853.616	0.299304
856.509	1.00706
859.401	0.84621
862.294	0.913117
865.187	1.21299
868.079	1.45734
870.972	1.00578
873.865	1.01997
876.757	1.25042
879.65	0.726477
882.543	0.695243
885.436	1.01013
888.328	1.1044
891.221	0.402873
894.114	0.924726
897.006	0.73803
899.899	0.122129
902.792	0.090043
905.684	0.254493
908.577	0.900803
911.47	0.249059
914.362	0.789534
917.255	0.295795
920.148	0.823939
923.041	0.13216
925.933	0.180666
928.826	0.047287
931.719	0.176069
934.611	0.050464
937.504	0.154931
940.397	0.056512
943.289	0.5797
946.182	0.188046
949.075	0.752354
951.968	0.158524
954.86	1.89386
957.753	0.82017
960.646	0.760521
963.538	0.555264
966.431	0.680492
969.324	0.732648
972.216	1.55734
975.109	0.468799
978.002	0.440143
980.895	0.714274
983.787	0.91464
986.68	0.522096
989.573	0.884878
992.465	0.294351
995.358	0.072604
998.251	0.316221
1001.14	0.006009
1004.04	0.063652
1006.93	0.048637
1009.82	0.908558
1012.71	1.11816
1015.61	0.915476
1018.5	0.859691
1021.39	0.06987
1024.29	2.79297
1027.18	1.07811
1030.07	1.52358
1032.96	1.93299
1035.86	1.59375
1038.75	0.700795
1041.64	1.89854
1044.53	1.17542
1047.43	0.985909
1050.32	2.36774
1053.21	0.701195
1056.11	1.84233
1059	0.72409
1061.89	0.644957
1064.78	1.03948
1067.68	0.385393
1070.57	0.506589
1073.46	0.685626
1076.35	1.1232
1079.25	0.447663
1082.14	0.606349
1085.03	0.507755
1087.92	0.126706
1090.82	0.028794
1093.71	0.044572
1096.6	0.618945
1099.49	0.417525
1102.39	0.148321
1105.28	0.793418
1108.17	0.314081
1111.07	0.464931
1113.96	0.928822
1116.85	0.033554
1119.74	0.473655
1122.64	0.568315
1125.53	0.637747
1128.42	0.028863
1131.32	0.142954
1134.21	0.445532
1137.1	0.667851
1139.99	0.669174
1142.89	0.002665
1145.78	0.442519
1148.67	0.698075
1151.56	0.672533
1154.46	0.738345
1157.35	0.253003
1160.24	0.326073
1163.13	1.23855
1166.03	0.967954
1168.92	0.874798
1171.81	1.25997
1174.71	0.660437
1177.6	0.408264
1180.49	0.010317
1183.38	0.584661
1186.28	0.474709
1189.17	0.46243
1192.06	0.088826
1194.95	0.331574
1197.85	0.406055
1200.74	1.11333
1203.63	0.555868
1206.53	0.761452
1209.42	1.25635
1212.31	1.3295
1215.2	1.59509
1218.1	0.907846
1220.99	0.590925
1223.88	0.90603
1226.77	0.842591
1229.67	0.697069
1232.56	0.178818
1235.45	0.182804
1238.35	0.771539
1241.24	1.13026
1244.13	0.01792
1247.02	0.603935
1249.92	1.34054
1252.81	1.86649
1255.7	0.429059
1258.59	0.978958
1261.49	1.13503
1264.38	1.1163
1267.27	0.211606
1270.16	0.440069
1273.06	0.67673
1275.95	0.936329
1278.84	0.566711
1281.73	0.22477
1284.63	0.231547
1287.52	0.986464
1290.41	0.916784
1293.31	0.76907
1296.2	1.17768
1299.09	0.249722
1301.98	0.943838
