Measurement: Raman, 780 nm, unoriented, Raman Data Processed
Mineral: Vernadite
Rruff sample: R080100
Ideal chemistry: (Mn^4+^,Fe^3+^,Ca,Na)(O,OH)_2_nH_2_O
Locality: Serra Branca pegmatite, Pedra Lavrada, Para√≠ba, Brazil
Source: Michael Scott
Description: Black rounded or globular micro grains, associated with serrabrancaite, R080077
Raman shift (cm-1)	intensity
145.074	0
147.967	0.317385
150.859	0.059338
153.752	1.06449
156.645	0.149374
159.538	0.28289
162.43	0.224895
165.323	0.389826
168.216	0.546621
171.108	0.822136
174.001	0.695835
176.894	0.979914
179.786	0.456259
182.679	0.592112
185.572	1.08602
188.465	1.07694
191.357	0.605766
194.25	0.470823
197.143	0.671783
200.035	0.050047
202.928	0.236904
205.821	0.358063
208.714	0.553728
211.606	0.443853
214.499	0.206768
217.392	0.154753
220.284	0.04509
223.177	0.444357
226.07	0.155107
228.962	0.194548
231.855	0.065207
234.748	0.00596
237.641	0.578777
240.533	0.931732
243.426	0.625341
246.319	1.15648
249.211	0.58452
252.104	0.896698
254.997	1.22378
257.889	1.04711
260.782	1.13879
263.675	0.653114
266.567	1.09048
269.46	1.34823
272.353	1.20314
275.246	0.931936
278.138	1.50572
281.031	1.09125
283.924	1.64823
286.816	1.1052
289.709	1.03567
292.602	1.06919
295.495	1.23057
298.387	0.760414
301.28	1.57699
304.173	1.08697
307.065	1.34206
309.958	1.47644
312.851	0.49648
315.743	0.630995
318.636	0.198758
321.529	0.850348
324.421	0.755283
327.314	0.137629
330.207	0.523166
333.1	0.754705
335.992	0.607725
338.885	0.229385
341.778	0.171122
344.67	0.401565
347.563	1.16675
350.456	0.665207
353.349	1.16522
356.241	1.4683
359.134	1.30948
362.027	0.77196
364.919	0.954941
367.812	1.0372
370.705	0.577582
373.597	0.751988
376.49	0.768704
379.383	0.550488
382.276	1.01983
385.168	0.654616
388.061	0.267158
390.954	0.237187
393.846	0.605265
396.739	0.56242
399.632	0.199324
402.524	0.225461
405.417	0.469886
408.31	0.17688
411.202	0.014034
414.095	0.233587
416.988	0.365791
419.881	0.20379
422.773	0.046112
425.666	0.489064
428.559	0.605669
431.451	0.077752
434.344	0.598354
437.237	0.631549
440.13	0.357746
443.022	0.389544
445.915	0.351063
448.808	1.0315
451.7	0.743611
454.593	1.06476
457.486	0.557456
460.378	0.779387
463.271	0.693582
466.164	0.914804
469.057	0.791967
471.949	0.566418
474.842	0.650779
477.735	0.852015
480.627	0.887862
483.52	1.22429
486.413	1.12822
489.305	0.413678
492.198	1.00201
495.091	0.543979
497.983	0.819114
500.876	1.05922
503.769	0.520928
506.662	0.236002
509.554	1.0024
512.447	0.268883
515.34	0.218121
518.232	0.287942
521.125	0.002583
524.018	0.122446
526.91	0.306066
529.803	0.267573
532.696	0.038843
535.589	0.118977
538.481	0.034908
541.374	0.055484
544.267	0.354914
547.159	1.03684
550.052	0.715057
552.945	0.870869
555.837	1.36616
558.73	1.16898
561.623	1.09594
564.516	1.51983
567.408	1.85515
570.301	1.2095
573.194	1.48215
576.086	1.17811
578.979	0.813322
581.872	1.20189
584.764	0.758932
587.657	0.811507
590.55	0.830544
593.443	1.24313
596.335	1.08628
599.228	1.05401
602.121	1.06932
605.013	0.689401
607.906	1.23009
610.799	1.16811
613.692	2.06068
616.584	1.62625
619.477	2.25646
622.37	3.00208
625.262	3.1176
628.155	3.8173
631.048	4.02967
633.94	5.0509
636.833	5.93991
639.726	6.02305
642.619	6.77068
645.511	6.3698
648.404	6.14001
651.297	5.29054
654.189	4.50667
657.082	4.15831
659.975	3.57036
662.867	2.52334
665.76	2.2944
668.653	1.75638
671.545	1.25753
674.438	1.19709
677.331	0.935474
680.224	0.758598
683.116	0.422454
686.009	0.290909
688.902	0.425984
691.794	0.206012
694.687	0.10014
697.58	0.192852
700.472	0.038039
703.365	0.029334
706.258	0.04048
709.151	0.072221
712.043	0.070885
714.936	0.364145
717.829	0.255344
720.721	0.094125
723.614	0.022174
726.507	0.262681
729.399	0.067983
732.292	0.096755
735.185	0.182339
738.078	0.055707
740.97	0.148938
743.863	0.103877
746.756	0.287154
749.648	0.46249
752.541	0.628823
755.434	0.040109
758.327	0.037311
761.219	0.184283
764.112	0.192821
767.005	0.394965
769.897	0.272112
772.79	0.730116
775.683	0.319684
778.575	0.055135
781.468	0.127387
784.361	0.09866
787.254	0.740006
790.146	0.28761
793.039	0.525501
795.932	0.473737
798.824	0.654404
801.717	0.307083
804.61	0.325785
807.502	0.626271
810.395	0.331753
813.288	0.82414
816.181	0.385661
819.073	0.832527
821.966	0.526291
824.859	0.452957
827.751	0.260449
830.644	0.194686
833.537	0.718509
836.429	0.771883
839.322	0.625551
842.215	0.888278
845.107	0.40485
848	0.507288
850.893	0.889789
853.786	1.10896
856.678	0.445921
859.571	0.888299
862.464	1.06067
865.356	1.12952
868.249	0.947324
871.142	0.701533
874.034	1.09135
876.927	0.778761
879.82	0.844222
882.713	0.548244
885.605	0.828829
888.498	0.701636
891.391	0.900543
894.283	0.911706
897.176	0.514108
900.069	0.460688
902.962	0.820095
905.854	0.608104
908.747	0.147992
911.64	0.110129
914.532	0.280749
917.425	0.278064
920.318	0.663555
923.21	0.090989
926.103	0.083835
928.996	0.508072
931.888	0.047625
934.781	0.728212
937.674	0.135283
940.567	0.083351
943.459	0.360371
946.352	0.515815
949.245	0.302667
952.137	0.460849
955.03	0.457943
957.923	0.161992
960.815	0.651571
963.708	0.431019
966.601	0.279887
969.494	0.736476
972.386	0.558277
975.279	0.380002
978.172	0.274444
981.064	0.295299
983.957	0.467714
986.85	0.465181
989.742	0.104053
992.635	0.406313
995.528	0.121621
998.42	0.133457
1001.31	0.267133
1004.21	0.478633
1007.1	0.873255
1009.99	0.325463
1012.88	1.04985
1015.78	0.963297
1018.67	0.102982
1021.56	0.224993
1024.45	0.637766
1027.35	0.360087
1030.24	0.736129
1033.13	0.585505
1036.03	0.191593
1038.92	0.396865
1041.81	0.039231
1044.7	0.458319
1047.6	0.312991
1050.49	0.365365
1053.38	0.220634
1056.28	0.161771
1059.17	0.646722
1062.06	0.648299
1064.95	0.322948
1067.85	0.420897
1070.74	0.272027
1073.63	0.536612
1076.52	0.47916
1079.42	0.213735
1082.31	0.06634
1085.2	0.287324
1088.09	0.54097
1090.99	0.231727
1093.88	0.025505
1096.77	0.930678
1099.66	0.354331
1102.56	0.116544
1105.45	0.1561
1108.34	0.359887
1111.24	0.252691
1114.13	0.544641
1117.02	0.421984
1119.91	0.749706
1122.81	0.210408
1125.7	0.38455
1128.59	0.606524
1131.48	0.409905
1134.38	0.482285
1137.27	0.278632
1140.16	0.351632
1143.06	0.119653
1145.95	0.030238
1148.84	0.279637
1151.73	0.261358
1154.63	0.576575
1157.52	0.358046
1160.41	0.657743
1163.3	0.044301
1166.2	0.269726
1169.09	0.905667
1171.98	0.043364
1174.88	0.183397
1177.77	0.144027
1180.66	0.165159
1183.55	0.509519
1186.45	0.540098
1189.34	0.662644
1192.23	0.378253
1195.12	0.278141
1198.02	0.698083
1200.91	0.178937
1203.8	0.494693
1206.69	0.879718
1209.59	0.817852
1212.48	0.519248
1215.37	0.856211
1218.27	0.831907
1221.16	0.535226
1224.05	0.424674
1226.94	0.247466
1229.84	0.409262
1232.73	0.437716
1235.62	0.578721
1238.52	0.801157
1241.41	0.330903
1244.3	0.2137
1247.19	0.489985
1250.09	0.134269
1252.98	0.111148
1255.87	0.564759
1258.76	0.422668
1261.66	0.255057
1264.55	0.688016
1267.44	1.10956
1270.33	0.831333
1273.23	0.184684
1276.12	0.525812
1279.01	0.196083
1281.9	0.38524
1284.8	0.133567
