Measurement: Raman, 514 nm, unoriented, Raman Data Processed
Mineral: Verplanckite
Rruff sample: R050265
Ideal chemistry: Ba_4_Mn^2+^_2_Si_4_O_12_(OH,H_2_O)_3_Cl_3_
Locality: Big Creek, Fresno County, California, USA
Source: Marcus Origlieri
Description: Brownish orange disseminated grains
Measured chemistry: (Ba_3.93_Na_0.06_Ca_0.01_)_Σ=4_(Mn^2+^_1.27_Fe_0.39_Ti_0.27_Mg_0.07_)_Σ=2_(Si_3.95_Al_0.05_)_Σ=4_O_12_((H_2_O)_1.57_(OH)_1.43_)_Σ=3_(Cl_2.17_(OH)_0.83_)_Σ=3_; (OH) estimated by charge balance; H_2_O by difference
Raman shift (cm-1)	intensity
285.626	0
288.361	386.797
291.095	416.553
293.828	240.668
296.561	256.99
299.292	596.328
302.023	481.336
304.753	849.203
307.481	468.391
310.209	62.689
312.936	26.66
315.663	197.348
318.388	412.568
321.112	574.131
323.836	364.502
326.558	248.039
329.28	287.41
332.001	350.252
334.721	616.262
337.44	514.025
340.158	658.012
342.875	167.279
345.591	10.512
348.307	149.229
351.022	988.113
353.735	667.064
356.448	436.023
359.16	264.938
361.871	16.221
364.581	202.525
367.291	551.9
369.999	622.707
372.707	484.68
375.413	22.123
378.119	117.58
380.824	277.883
383.528	653.305
386.231	338.52
388.933	93.537
391.635	108.252
394.335	332.602
397.035	536.525
399.733	810.006
402.431	1013.09
405.128	575.818
407.824	808.207
410.52	1300.29
413.214	2361.93
415.907	2793.05
418.6	2553.67
421.292	1973.91
423.983	1673.82
426.673	1883.4
429.362	2042.68
432.05	1801.69
434.737	1720.42
437.424	1528.91
440.109	1317.14
442.794	1796
445.478	2769.28
448.161	2942.75
450.843	3577.55
453.524	4286.54
456.205	5632.77
458.884	7735.63
461.563	9816.69
464.241	9482.63
466.918	6981.16
469.594	5055.35
472.269	4315.15
474.943	3590.31
477.617	2970.34
480.289	2620.38
482.961	2375.83
485.632	2135.36
488.302	2172.38
490.971	2559.97
493.639	2529.13
496.307	2168.24
498.973	2147.41
501.639	2864.48
504.304	3699.64
506.968	3814
509.631	3970.02
512.293	3937.62
514.954	4103.1
517.615	4748.07
520.275	4784.12
522.933	5088.7
525.591	4526.31
528.248	3693.79
530.905	3917.82
533.56	3583.15
536.214	3114.99
538.868	2200.5
541.521	1963.77
544.173	2046.76
546.824	2363.75
549.474	2885.03
552.124	3357.05
554.772	2509.79
557.42	2642.8
560.067	3835.32
562.712	4016.51
565.358	3909.46
568.002	3871.64
570.645	4483.62
573.288	5046.16
575.929	7208.84
578.57	8181.88
581.21	9263.69
583.85	6836.16
586.488	4408.04
589.125	2499.88
591.762	2002.68
594.398	1083.75
597.033	444.633
599.667	575.324
602.3	205.812
604.932	405.957
607.564	55.441
610.194	234.41
612.824	196.688
615.453	31.336
618.081	348.887
620.709	254.09
623.335	177.375
625.961	431.664
628.586	93.965
631.209	528.348
633.833	342.199
636.455	216.137
639.076	40.527
641.697	262.477
644.316	535.258
646.935	817.754
649.553	149.977
652.171	161.98
654.787	433.77
657.403	1005.36
660.017	586.73
662.631	477.926
665.244	318.953
667.856	589.801
670.468	500.469
673.078	310.953
675.688	241.258
678.297	81.375
680.905	231.309
683.512	811.051
686.118	800.59
688.724	139.926
691.328	449.184
693.932	1018.2
696.535	1097.11
699.137	1425.93
701.739	1064.59
704.339	723.168
706.939	1181.61
709.538	1749.93
712.136	1718.11
714.733	426.637
717.329	424.539
719.925	1012.32
722.519	939.965
725.113	497.469
727.706	226.164
730.299	233.43
732.89	663.164
735.48	916.832
738.07	261.238
740.659	359.047
743.247	325.566
745.834	1111.68
748.421	591.457
751.006	727.547
753.591	957.137
756.175	887.996
758.758	748.68
761.341	791.508
763.922	1127.44
766.503	296.066
769.083	571.18
771.662	1228.97
774.24	618.41
776.817	163.195
779.394	378.188
781.97	48.398
784.545	849.281
787.119	799.516
789.692	73.16
792.264	466.09
794.836	312.234
797.407	1284.86
799.977	1078.23
802.546	943.254
805.115	626.086
807.682	1379
810.249	1543.06
812.815	1215.22
815.38	738.863
817.944	1343.16
820.508	2116.84
823.07	1461.48
825.632	474.617
828.193	977.711
830.754	1321.27
833.313	1364.11
835.872	1167.72
838.429	580.344
840.986	1321.61
843.543	1565.28
846.098	2170.35
848.653	1085.6
851.206	810.965
853.759	1036.37
856.311	1641.8
858.863	1337.27
861.413	182.777
863.963	378.328
866.512	913.922
869.06	949.52
871.607	105.18
874.154	170.727
876.7	565.844
879.244	1091.66
881.788	946.895
884.332	88.16
886.874	682.672
889.416	671.062
891.957	825.199
894.497	129.742
897.036	245.773
899.575	749.09
902.112	982.391
904.649	487.309
907.185	262.285
909.72	47.332
912.255	332.48
914.788	1257.89
917.321	393.52
919.853	279.012
922.385	364.941
924.915	971.051
927.445	697.375
929.974	773.543
932.502	970.43
935.029	2266.97
937.555	1884.52
940.081	1742.43
942.606	1120.11
945.13	2278.23
947.653	1939.9
950.176	1518.42
952.697	1987.18
955.218	1535.68
957.738	1975.85
960.258	2704.61
962.776	2153.27
965.294	2434.63
967.811	3483.72
970.327	3733.93
972.842	2932.96
975.357	3509.71
977.871	3542.62
980.384	5052.93
982.896	6422.36
985.407	6464.48
987.918	6716.28
990.428	7578.55
992.937	8178.41
995.445	7079.51
997.952	6180.47
1000.46	6551.68
1002.97	6871.93
1005.47	3873.96
1007.97	3175.38
1010.48	2926.55
1012.98	3907.21
1015.48	3260.36
1017.98	2741.64
1020.48	2993.64
1022.98	3704.73
1025.48	3677.43
1027.98	2500.53
1030.48	3065.09
1032.97	3725.27
1035.47	3704.11
1037.96	2600.23
1040.46	2444.36
1042.95	2718.45
1045.44	3320.03
1047.94	2034.84
1050.43	1866.58
1052.92	2464.16
1055.41	3177
1057.9	2447.98
1060.38	1999.41
1062.87	2260.3
1065.36	2042.46
1067.84	1403.67
1070.33	1065.45
1072.81	1035.8
1075.3	1976.02
1077.78	1646.12
1080.26	1396.05
1082.74	1035.81
1085.22	964.52
1087.7	1434.04
1090.18	283.391
1092.66	272.633
1095.13	932.551
1097.61	1342.03
1100.08	179.914
1102.56	835.891
1105.03	41.375
1107.51	967.957
1109.98	582.172
1112.45	33.891
1114.92	380.172
1117.39	1384.27
1119.86	528.398
1122.33	107.375
1124.8	236.629
1127.26	1270.28
1129.73	783.867
1132.19	12.594
1134.66	51.008
1137.12	1254.65
1139.59	1078.35
1142.05	137.93
1144.51	175.684
1146.97	549.773
1149.43	465.012
1151.89	80.492
1154.35	226.316
1156.81	682.379
1159.27	788.625
1161.72	55.062
1164.18	531.699
1166.63	1138.61
1169.09	855.84
1171.54	203.023
1173.99	320.438
1176.44	1113.35
1178.89	1109.79
1181.34	564.68
1183.79	562.949
1186.24	1335.96
1188.69	1282.29
1191.14	365.895
1193.58	502.207
1196.03	1849.3
1198.47	1274.39
1200.92	187
1203.36	689.492
1205.8	1403.37
1208.24	912.09
1210.69	292.668
1213.13	695.641
1215.57	1770.15
1218.01	1322.99
1220.44	647.621
1222.88	1054.15
1225.32	1420.71
1227.75	1055.74
1230.19	196.723
1232.62	796.734
1235.06	1579.69
1237.49	1026.58
1239.92	494.672
1242.35	1216.49
1244.78	1605.3
1247.21	1209.66
1249.64	205.117
1252.07	815.422
1254.5	0
