Measurement: Raman, 780 nm, unoriented, Raman Data Processed
Mineral: Vesuvianite
Rruff sample: R060170
Ideal chemistry: (Ca,Na)_19_(Al,Mg,Fe^3+^)_13_(SiO_4_)_10_(Si_2_O_7_)_4_(OH,F,O)_10_
Locality: Jeffrey mine, Asbestos, Quebec, Canada
Source: Guy Ouellet
Description: Violet prismatic crystals on diopside, R060171
Measured chemistry: Ca_19.00_(Al_10.85_Mg_1.38_Mn_0.54_Fe^2+^_0.21_Cr_0.02_)_Σ=13_Si_18.00_O_68_((OH)_9.13_O_0.87_)_Σ=10_ ; B not measured.
Raman shift (cm-1)	intensity
150.362	0
153.254	0.924319
156.147	3.60551
159.04	3.31317
161.932	17.1942
164.825	22.6636
167.718	31.8252
170.61	42.2307
173.503	44.5442
176.396	53.5478
179.288	58.3104
182.181	62.9793
185.074	64.3091
187.966	52.077
190.859	34.8597
193.752	14.5229
196.645	6.22717
199.537	0.996517
202.43	2.24262
205.323	5.27023
208.215	11.8291
211.108	23.5034
214.001	24.7182
216.893	32.6967
219.786	33.5297
222.679	35.9847
225.572	43.686
228.464	61.9851
231.357	54.8413
234.25	45.0819
237.142	35.5432
240.035	34.7431
242.928	25.2793
245.821	19.0052
248.713	23.6011
251.606	26.9814
254.499	40.7551
257.391	58.9715
260.284	67.7751
263.177	44.8732
266.069	19.6638
268.962	5.21761
271.855	0.424619
274.748	0.878177
277.64	0.753976
280.533	2.50183
283.426	6.45574
286.318	8.59476
289.211	17.4193
292.104	25.3033
294.996	23.3435
297.889	19.8972
300.782	14.4835
303.675	10.5939
306.567	7.90843
309.46	14.2497
312.353	15.7376
315.245	17.6377
318.138	26.6043
321.031	32.4919
323.923	37.0953
326.816	35.3963
329.709	37.0384
332.601	30.1159
335.494	21.4587
338.387	14.4106
341.279	4.85708
344.172	0.329064
347.065	0.207357
349.958	2.9446
352.85	2.77638
355.743	14.2278
358.636	25.2858
361.528	29.2173
364.421	36.6273
367.314	30.2882
370.207	36.8284
373.099	30.4838
375.992	32.9111
378.885	28.2254
381.777	26.0877
384.67	18.4429
387.563	24.6636
390.455	23.6553
393.348	28.171
396.241	38.758
399.134	52.9663
402.026	75.3784
404.919	103.478
407.812	119.479
410.704	119.491
413.597	107.848
416.49	85.9002
419.382	67.5284
422.275	54.5222
425.168	38.338
428.06	20.8254
430.953	15.1168
433.846	0.655771
436.739	1.38556
439.631	0.573184
442.524	1.68588
445.417	1.09545
448.309	0.566982
451.202	1.06188
454.095	1.37282
456.988	1.34574
459.88	5.955
462.773	7.43924
465.666	13.7971
468.558	14.7253
471.451	20.8716
474.344	35.6231
477.236	43.4281
480.129	46.1982
483.022	48.5499
485.914	44.5718
488.807	38.8182
491.7	33.0764
494.592	31.0675
497.485	30.4273
500.378	25.0531
503.271	24.5728
506.163	21.2869
509.056	15.8103
511.949	16.0333
514.841	16.8713
517.734	14.3504
520.627	12.799
523.519	11.4851
526.412	4.83794
529.305	2.68921
532.198	4.50973
535.09	4.90357
537.983	3.08415
540.876	2.17419
543.768	1.92414
546.661	0.270378
549.554	0.391253
552.447	1.02601
555.339	1.17503
558.232	0.469738
561.125	0.351489
564.017	1.44087
566.91	0.832062
569.803	1.7921
572.695	1.14357
575.588	1.83891
578.481	6.26723
581.374	12.0002
584.266	21.1809
587.159	28.4788
590.052	31.6536
592.944	41.6461
595.837	35.7745
598.73	33.0462
601.622	23.1937
604.515	18.0862
607.408	15.7675
610.301	11.8668
613.193	13.1501
616.086	14.5939
618.979	12.5123
621.871	14.2955
624.764	15.7833
627.657	17.1933
630.549	26.8123
633.442	34.9806
636.335	46.52
639.227	57.385
642.12	48.0273
645.013	39.0121
647.905	29.9987
650.798	21.377
653.691	14.1007
656.584	7.63004
659.476	1.33607
662.369	2.66023
665.262	3.54156
668.154	6.64431
671.047	5.311
673.94	8.08783
676.832	7.39983
679.725	14.5571
682.618	26.0398
685.511	39.6445
688.403	61.3517
691.296	81.0679
694.189	85.1279
697.081	63.6928
699.974	40.1795
702.867	24.9501
705.76	9.39702
708.652	5.53026
711.545	5.69381
714.438	0.946791
717.33	1.08451
720.223	0.129986
723.116	0.888887
726.008	1.03064
728.901	0.33122
731.794	1.12071
734.687	0.727842
737.579	2.13997
740.472	3.16749
743.365	3.16045
746.257	6.12858
749.15	8.50887
752.043	7.01966
754.935	12.9596
757.828	13.4068
760.721	9.47309
763.614	9.47925
766.506	9.1828
769.399	7.53272
772.292	6.84948
775.184	5.34717
778.077	5.86382
780.97	5.77843
783.862	1.83333
786.755	2.54888
789.648	5.27076
792.54	2.12079
795.433	4.91213
798.326	0.260417
801.218	2.82225
804.111	0.338448
807.004	1.69217
809.897	1.03017
812.789	1.92342
815.682	1.76321
818.575	1.08425
821.467	0.635293
824.36	0.126994
827.253	1.06796
830.145	0.908222
833.038	4.35451
835.931	4.41449
838.824	8.83931
841.716	15.3175
844.609	19.6288
847.502	23.2008
850.394	38.2099
853.287	48.7144
856.18	61.9226
859.072	64.8707
861.965	65.746
864.858	61.9012
867.751	56.1187
870.643	54.5089
873.536	50.8526
876.429	46.8875
879.321	40.6499
882.214	39.7598
885.107	33.4129
888	23.0063
890.892	17.3729
893.785	9.03431
896.678	5.60619
899.57	1.43928
902.463	1.25225
905.356	0.751386
908.248	5.20885
911.141	16.2339
914.034	20.609
916.927	34.1408
919.819	49.589
922.712	67.9485
925.605	86.8534
928.497	102.056
931.39	100.689
934.283	89.2536
937.175	66.7557
940.068	59.0958
942.961	38.5546
945.854	26.1014
948.746	23.2634
951.639	23.5323
954.532	16.7047
957.424	22.2706
960.317	27.6801
963.21	26.7303
966.102	24.597
968.995	18.1114
971.888	15.6182
974.78	8.61598
977.673	8.89473
980.566	5.14068
983.458	4.01652
986.351	0.438647
989.244	0.377231
992.137	0.717296
995.029	2.17641
997.922	0.261578
1000.82	0.520169
1003.71	0.498677
1006.6	1.71923
1009.49	4.94253
1012.38	10.9174
1015.28	14.5971
1018.17	8.70237
1021.06	10.2562
1023.96	11.5823
1026.85	12.6393
1029.74	13.2596
1032.63	16.5922
1035.53	17.6418
1038.42	26.5255
1041.31	27.2146
1044.2	28.1387
1047.1	23.0872
1049.99	17.4803
1052.88	11.5481
1055.78	6.04969
1058.67	2.8409
1061.56	2.49839
1064.45	1.06166
1067.35	3.2408
1070.24	2.86488
1073.13	0.234201
1076.03	0.176614
1078.92	0.792876
1081.81	0.155116
1084.7	0.337337
1087.6	1.41184
1090.49	3.24829
1093.38	2.30525
1096.27	1.93995
1099.17	0.098936
1102.06	0.160556
1104.95	3.8293
1107.84	0.254848
1110.74	2.24775
1113.63	1.76624
1116.52	2.56279
1119.41	3.61001
1122.31	1.61437
1125.2	1.75763
1128.09	0.780279
1130.99	2.90337
1133.88	1.91254
1136.77	0.5843
1139.66	1.63429
1142.56	1.41414
1145.45	1.94582
1148.34	3.8487
1151.23	0.187048
1154.13	4.58336
1157.02	2.75167
1159.91	2.38979
1162.81	1.51759
1165.7	0.141855
1168.59	0.727337
1171.48	3.03071
1174.38	1.99516
1177.27	3.63113
1180.16	3.7205
1183.06	3.15964
1185.95	1.3887
1188.84	1.05536
1191.73	3.40994
1194.62	1.87265
1197.52	4.43123
1200.41	1.38642
1203.3	1.18178
1206.2	0.632308
1209.09	1.30628
1211.98	0.7411
1214.87	2.87506
1217.77	1.35552
1220.66	2.4685
1223.55	1.7433
1226.44	3.08591
1229.34	1.11487
1232.23	1.03372
1235.12	1.2813
1238.02	1.50507
1240.91	0.124485
1243.8	1.47563
1246.69	2.31834
1249.59	2.15467
1252.48	2.51407
1255.37	0.695537
1258.27	1.54535
1261.16	0.075525
1264.05	3.82709
1266.94	2.29509
1269.84	2.40304
1272.73	2.48105
1275.62	1.88366
1278.51	1.82841
1281.41	2.82961
1284.3	4.18489
