Measurement: Raman, 532 nm, unoriented, Raman Data Processed
Mineral: Vesuvianite
Rruff sample: R050035
Ideal chemistry: (Ca,Na)_19_(Al,Mg,Fe^3+^)_13_(SiO_4_)_10_(Si_2_O_7_)_4_(OH,F,O)_10_
Locality: Olmsteadville, New York, USA
Source: University of Arizona Mineral Museum
Description: Brown single crystal fragment
Measured chemistry: (Ca_18.66_Na_0.34_)_Σ=19_(Al_9.16_Mg_1.28_Ti_1.21_Fe^3+^_0.89_Fe^2+^_0.46_)_Σ=13_Si_18_O_68_((OH)_4.70_F_3.18_O_2.12_)_Σ=10_
Raman shift (cm-1)	intensity
168.946	0
171.839	54.1387
174.732	130.624
177.625	326.298
180.517	435.143
183.41	491.397
186.303	557.957
189.195	389.199
192.088	142.757
194.981	33.6997
197.874	19.835
200.766	8.30078
203.659	3.5791
206.552	143.311
209.444	188.417
212.337	349.154
215.23	475.378
218.122	584.034
221.015	630.54
223.908	466.006
226.8	225.243
229.693	125.698
232.586	134.947
235.479	174.536
238.371	252.696
241.264	137.672
244.157	217.492
247.049	240.547
249.942	318.204
252.835	437.906
255.727	471.246
258.62	353.035
261.513	112.678
264.406	6.78711
267.298	6.53223
270.191	30.4072
273.084	3.0957
275.976	178.792
278.869	377.077
281.762	588.616
284.655	757.668
287.547	786.727
290.44	658.057
293.333	524.558
296.225	256.291
299.118	60.8374
302.011	67.0166
304.904	127.045
307.796	12.0044
310.689	40.9526
313.582	190.884
316.474	345.434
319.367	610.742
322.26	747.345
325.152	798.364
328.045	865.161
330.938	854.727
333.83	718.779
336.723	702.123
339.616	717.399
342.509	693.453
345.401	781.297
348.294	790.104
351.187	954.13
354.079	1132.37
356.972	1309.13
359.865	1474.12
362.757	1725.89
365.65	2029.54
368.543	2218.92
371.436	2182
374.328	1986.31
377.221	1695.87
380.114	1337.7
383.006	1168.46
385.899	1036.56
388.792	1045.52
391.685	1084.91
394.577	1220.34
397.47	1380.29
400.363	1682.04
403.255	1885.6
406.148	2087.16
409.041	2123.06
411.933	1995.37
414.826	1745.66
417.719	1313.99
420.611	955.197
423.504	605.246
426.397	381.432
429.29	189.892
432.182	61.3364
435.075	35.4307
437.968	37.9365
440.86	11.8301
443.753	36.9907
446.646	22.2139
449.538	159.478
452.431	230.703
455.324	277.519
458.217	304.743
461.109	354.361
464.002	205.042
466.895	244.268
469.787	138.302
472.68	97.6973
475.573	18.1104
478.466	34.498
481.358	37.0483
484.251	62.2437
487.144	52.3955
490.036	194.476
492.929	274.797
495.822	361.154
498.714	434.724
501.607	531.688
504.5	651.606
507.393	691.502
510.285	662.5
513.178	648.672
516.071	669.258
518.963	598.654
521.856	449.983
524.749	434.403
527.641	364.868
530.534	346.963
533.427	375.431
536.32	354.076
539.212	351.565
542.105	338.757
544.998	336.647
547.89	327.142
550.783	321.971
553.676	239.798
556.568	185.404
559.461	95.8408
562.354	4.96875
565.247	14.8682
568.139	11.0889
571.032	30.7041
573.925	57.6426
576.817	192.1
579.71	278.571
582.603	402.525
585.495	548.451
588.388	672.026
591.281	839.443
594.174	1003.08
597.066	1239.31
599.959	1395.56
602.852	1651.17
605.744	1776.22
608.637	2008.71
611.53	2179.46
614.423	2228.73
617.315	2170.27
620.208	2109.2
623.101	2007.85
625.993	1859.66
628.886	1733.34
631.779	1633.58
634.671	1511.46
637.564	1381.87
640.457	1194.17
643.35	1013.97
646.242	748.903
649.135	580.787
652.028	328.887
654.92	169.125
657.813	34.6523
660.706	2.16894
663.598	89.0781
666.491	153.755
669.384	55.5986
672.277	4.46533
675.169	191.511
678.062	303.57
680.955	694.583
683.847	1149.18
686.74	1641.56
689.633	2167.35
692.525	2424.49
695.418	2159.23
698.311	1445.69
701.204	764.814
704.096	330
706.989	78.5137
709.882	21.9355
712.774	26.4326
715.667	111.481
718.56	404.65
721.452	773.613
724.345	1194.38
727.238	1779.62
730.131	2524.44
733.023	3365.28
735.916	4255.91
738.809	5169.04
741.701	6018.05
744.594	6696.13
747.487	7254.39
750.38	7254.21
753.272	6971.16
756.165	6382.92
759.058	5465.85
761.95	4642.75
764.843	3939.11
767.736	3579.47
770.628	3436.36
773.521	3426.25
776.414	3474.02
779.307	3493.02
782.199	3440.35
785.092	3133.88
787.985	2812.67
790.877	2483.04
793.77	2191.54
796.663	1833.52
799.555	1575.99
802.448	1193.56
805.341	980.342
808.234	722.357
811.126	614.241
814.019	531.67
816.912	419.294
819.804	283.611
822.697	167.675
825.59	9.04199
828.482	83.8828
831.375	81.9189
834.268	124.805
837.16	83.6875
840.053	0.25
842.946	70.1025
845.839	328.799
848.731	549.644
851.624	730.977
854.517	941.561
857.409	1121.24
860.302	1193.05
863.195	1376.17
866.087	1373.14
868.98	1338.62
871.873	1210.07
874.766	1099.14
877.658	922.667
880.551	785.591
883.444	668.594
886.337	492.147
889.229	294.06
892.122	171.216
895.015	6.22949
897.907	42.4082
900.8	133.466
903.693	263.173
906.585	500.606
909.478	770.696
912.371	1181.93
915.264	1624.26
918.156	1917.4
921.049	2328.23
923.942	2540.6
926.834	2580.97
929.727	2592.32
932.62	2435.78
935.512	2346.79
938.405	2325.42
941.298	2403.38
944.191	2432.59
947.083	2567.06
949.976	2594.52
952.869	2723.69
955.761	2757.03
958.654	2624.23
961.547	2560.68
964.439	2223.77
967.332	1926.8
970.225	1532.75
973.117	1273.63
976.01	1057.74
978.903	858.913
981.796	705.246
984.688	473.444
987.581	389.993
990.474	165.255
993.366	27.3208
996.259	21.1362
999.152	91.0371
1002.04	28.7568
1004.94	15.1621
1007.83	53.1987
1010.72	206.153
1013.62	260.528
1016.51	344.423
1019.4	461.203
1022.29	492.361
1025.19	574.532
1028.08	638.661
1030.97	837.792
1033.86	1004.74
1036.76	1288.35
1039.65	1576.09
1042.54	1860.48
1045.43	1760.84
1048.33	1416.48
1051.22	970.46
1054.11	608.492
1057.01	358.337
1059.9	139.067
1062.79	27.8779
1065.68	37.4717
1068.58	83.8931
1071.47	50.7602
1074.36	28.7788
1077.26	12.6504
1080.15	38.0879
1083.04	48.8223
1085.93	99.5112
1088.83	107.131
1091.72	121.654
1094.61	169.414
1097.5	171.929
1100.4	204.929
1103.29	225.506
1106.18	267.704
1109.07	265.586
1111.97	351.641
1114.86	422.872
1117.75	400.16
1120.64	396.776
1123.54	300.257
1126.43	315.81
1129.32	326.719
1132.22	341.899
1135.11	221.343
1138	214.208
1140.89	191.079
1143.79	156.667
1146.68	161.993
1149.57	222.634
1152.46	180.222
1155.36	118.238
1158.25	95.0742
1161.14	136.113
1164.04	136.675
1166.93	144.651
1169.82	142.442
1172.71	137.332
1175.61	106.6
1178.5	113.416
1181.39	134.257
1184.29	153.487
1187.18	107.032
1190.07	20.084
1192.96	91.8052
1195.86	67.4312
1198.75	68.416
1201.64	128.707
1204.53	77.9971
1207.43	58.7412
1210.32	72.5752
1213.21	51.4849
1216.1	41.4365
1219	17.4385
1221.89	100.722
1224.78	52.4312
1227.67	69.8325
1230.57	19.3462
1233.46	22.9756
1236.35	29.1553
1239.25	32.6924
1242.14	29.251
1245.03	29.98
1247.92	1.83057
1250.82	42.1382
1253.71	7.90918
1256.6	19.4805
1259.49	55.7837
1262.39	45.3481
1265.28	104.938
1268.17	19.2344
1271.07	86.0327
1273.96	54.2812
1276.85	42.4629
1279.74	72.7749
1282.64	21.813
1285.53	47.1812
1288.42	28.4502
1291.32	73.2383
1294.21	15.3218
1297.1	24.271
1299.99	4.92773
