Measurement: Raman, 514 nm, unoriented, Raman Data Processed
Mineral: Vesuvianite
Rruff sample: R050233
Ideal chemistry: (Ca,Na)_19_(Al,Mg,Fe^3+^)_13_(SiO_4_)_10_(Si_2_O_7_)_4_(OH,F,O)_10_
Locality: Ludwig, Nevada, USA
Source: Marcus Origlieri
Description: Pale green euhedral single crystal
Measured chemistry: Ca_19.00_(Al_10.04_Mg_2.54_Fe^2+^_0.42_)_Σ=13_(Si_17.96_Al_0.04_)_Σ=18_O_68_((OH)_9.66_F_0.34_)_Σ=10_ ; Boron not analyzed.
Raman shift (cm-1)	intensity
118.424	0
122.592	2.479
126.758	66.51
130.922	144.669
135.083	144.161
139.243	535.883
143.401	338.789
147.557	349.393
151.711	97.084
155.863	131.607
160.013	797.277
164.161	1607.7
168.308	1740.56
172.452	2081.02
176.594	2320.59
180.734	2279.92
184.872	1939.91
189.008	1240.66
193.143	722.918
197.275	828.428
201.405	1042.88
205.534	1342.83
209.66	2262.33
213.784	3103.44
217.907	3785.81
222.027	3141.5
226.146	2815.71
230.263	2155.48
234.377	1729.82
238.49	1385.73
242.601	1517.34
246.709	1903.95
250.816	3139.46
254.921	4550.82
259.024	3614.37
263.125	2074.29
267.224	1586.64
271.321	1817.1
275.416	2155.66
279.51	2976.32
283.601	4147.92
287.69	4995.01
291.778	4726.52
295.863	3988.65
299.947	3493.47
304.029	2988.24
308.108	2101.06
312.186	1838.71
316.262	1822.31
320.336	1867.71
324.408	2060.02
328.478	1831.67
332.546	1892.59
336.612	1600.69
340.677	1477.94
344.739	1599.29
348.799	1716.67
352.858	1934.05
356.915	2370.37
360.969	2695.6
365.022	2896.5
369.073	2597.32
373.122	2258.58
377.169	2288.66
381.215	2051.04
385.258	1901.37
389.299	1920.11
393.339	2338.55
397.376	3346.63
401.412	4178.4
405.446	5505.77
409.478	5902.92
413.508	5536.67
417.536	4716.27
421.562	3420.67
425.586	2340.77
429.609	1184.55
433.629	1101
437.648	351.283
441.665	250.289
445.68	280.061
449.693	303.982
453.704	752.957
457.713	337.904
461.721	734.66
465.726	828.414
469.73	1469.69
473.731	2234.49
477.731	2241.74
481.729	2295.44
485.725	2018.51
489.72	1356.94
493.712	998.713
497.703	532.793
501.691	434.16
505.678	503.797
509.663	170.676
513.646	399.777
517.627	165.092
521.607	58.547
525.584	136.984
529.56	153.113
533.534	514.773
537.506	84.664
541.476	34.164
545.444	103.244
549.41	124.717
553.375	140.238
557.337	316.752
561.298	41.791
565.257	179.842
569.214	433.93
573.17	439.729
577.123	1139.19
581.075	2038.73
585.024	2280.33
588.972	3138.48
592.918	3642.07
596.863	3951.53
600.805	4340.45
604.746	4411.14
608.685	4605.72
612.621	4802.95
616.557	5043.8
620.49	5301.25
624.421	5814
628.351	7144.51
632.279	8380.16
636.205	9002.41
640.129	10080.2
644.051	10087.6
647.972	8135.63
651.89	5401.17
655.807	4103.26
659.722	2962.89
663.636	2276.06
667.547	1918.77
671.457	1980.99
675.365	2516.74
679.271	3772.01
683.175	5516.67
687.077	7776.04
690.978	9692.34
694.877	9629.15
698.774	7229.26
702.669	4786.86
706.562	3193.04
710.454	1694.82
714.344	648.221
718.232	210.822
722.118	224.697
726.002	75.434
729.885	193.529
733.766	126.428
737.645	143.395
741.522	161.436
745.397	266.602
749.271	153.762
753.143	279.219
757.013	5.467
760.881	85.764
764.748	107.393
768.613	171.221
772.476	196.045
776.337	214.023
780.196	161.189
784.054	130.924
787.91	389.381
791.764	505.195
795.616	755.84
799.467	515.305
803.316	652.447
807.163	1344.31
811.008	1213.92
814.851	1415.53
818.693	1652.31
822.533	2134.22
826.371	2589.98
830.208	3318.71
834.042	3702.38
837.875	5222.14
841.706	6190.56
845.536	7360.38
849.363	8913.72
853.189	11297.2
857.013	13991.6
860.836	14404.9
864.656	13957.1
868.475	12972.2
872.292	11996.8
876.108	10971.6
879.922	11483.4
883.733	11341.2
887.544	10978.7
891.352	10582.9
895.159	10007.7
898.964	10025.1
902.767	9268.77
906.568	9540.93
910.368	9707.12
914.166	10469.1
917.962	11223.7
921.757	13379.8
925.55	15324.5
929.341	17033.4
933.13	17432.5
936.918	16645.8
940.703	15222.8
944.488	13918.9
948.27	12310.5
952.051	11420.9
955.83	10827.4
959.607	9797.15
963.383	9141.38
967.156	8284.92
970.928	7390.1
974.699	6610.86
978.468	6321.84
982.234	5490.15
986	5099.78
989.763	4079.91
993.525	3400.17
997.285	2988.77
1001.04	3057.37
1004.8	2694.3
1008.55	2394.54
1012.31	2633.63
1016.06	2343.69
1019.81	2398.29
1023.56	2741.33
1027.31	2892.08
1031.05	2950.35
1034.79	3267.81
1038.53	3247.11
1042.27	2971.92
1046.01	2550.84
1049.75	2457.09
1053.48	1655.81
1057.22	1449.29
1060.95	597.727
1064.68	554.098
1068.4	915.711
1072.13	669.457
1075.86	374.645
1079.58	111.973
1083.3	161.211
1087.02	210.883
1090.74	196.262
1094.45	26.711
1098.17	112.172
1101.88	254.215
1105.59	39.574
1109.3	96.773
1113.01	126.426
1116.71	1.105
1120.42	218.406
1124.12	202.223
1127.82	108.711
1131.52	261.391
1135.22	19.66
1138.91	341.691
1142.61	28.594
1146.3	132.469
1149.99	18.031
1153.68	375.043
1157.37	90.715
1161.06	457.109
1164.74	268.164
1168.42	492.156
1172.1	296.035
1175.78	677.109
1179.46	583.5
1183.14	701.766
1186.81	443.332
1190.48	509.09
1194.15	578.266
1197.83	523.809
1201.49	209.789
1205.16	580.641
1208.82	126.824
1212.49	460.715
1216.15	648.926
1219.81	515.641
1223.46	30.684
1227.12	250.508
1230.78	162.68
1234.43	457.566
1238.08	597.41
1241.73	286.098
1245.38	16.324
1249.03	0
