Measurement: Raman, 780 nm, unoriented, Raman Data Processed
Mineral: Vesuvianite
Rruff sample: R050233
Ideal chemistry: (Ca,Na)_19_(Al,Mg,Fe^3+^)_13_(SiO_4_)_10_(Si_2_O_7_)_4_(OH,F,O)_10_
Locality: Ludwig, Nevada, USA
Source: Marcus Origlieri
Description: Pale green euhedral single crystal
Measured chemistry: Ca_19.00_(Al_10.04_Mg_2.54_Fe^2+^_0.42_)_Σ=13_(Si_17.96_Al_0.04_)_Σ=18_O_68_((OH)_9.66_F_0.34_)_Σ=10_ ; Boron not analyzed.
Raman shift (cm-1)	intensity
134.135	0
137.028	16.7631
139.92	41.462
142.813	43.9083
145.706	45.8226
148.598	20.2294
151.491	2.07288
154.384	0.826843
157.276	27.0877
160.169	60.669
163.062	98.6928
165.955	121.469
168.847	138.599
171.74	148.957
174.633	166.218
177.525	168.369
180.418	155.759
183.311	124.359
186.203	85.1174
189.096	52.7448
191.989	30.9138
194.882	17.6276
197.774	16.0099
200.667	18.9288
203.56	32.8464
206.452	63.7495
209.345	90.6714
212.238	124.119
215.131	150.305
218.023	152.825
220.916	125.024
223.809	98.7999
226.701	71.635
229.594	45.9502
232.487	30.4398
235.379	7.85254
238.272	0.760315
241.165	11.7559
244.058	2.61511
246.95	21.6707
249.843	64.4012
252.736	111.129
255.628	141.417
258.521	101.761
261.414	35.8298
264.306	3.7124
267.199	6.82812
270.092	9.39246
272.985	29.0732
275.877	50.6786
278.77	83.3801
281.663	119.429
284.555	144.652
287.448	168.874
290.341	172.88
293.233	148.545
296.126	114.574
299.019	85.7196
301.911	64.3345
304.804	44.434
307.697	23.3927
310.59	4.26282
313.482	2.90222
316.375	1.9223
319.268	3.95306
322.16	13.5484
325.053	16.7787
327.946	23.3497
330.839	25.4235
333.731	18.5496
336.624	13.5672
339.517	21.7433
342.409	31.8057
345.302	52.5527
348.195	76.3674
351.087	111.623
353.98	150.806
356.873	202.78
359.765	249.29
362.658	274.777
365.551	282.241
368.443	258.922
371.336	222.282
374.229	179.758
377.122	145.012
380.014	117.559
382.907	96.558
385.8	81.8323
388.692	84.9868
391.585	97.1385
394.478	124.344
397.37	166.563
400.263	218.388
403.156	258.284
406.049	284.222
408.941	285.36
411.834	268.967
414.727	232.47
417.619	187.6
420.512	138.565
423.405	92.3657
426.298	51.8447
429.19	21.1345
432.083	6.73889
434.976	5.29846
437.868	8.90375
440.761	7.01465
443.654	3.34076
446.546	7.06995
449.439	13.262
452.332	15.4573
455.224	27.8222
458.117	33.3198
461.01	42.4836
463.903	50.7672
466.795	62.4153
469.688	82.9559
472.581	100.565
475.473	111.138
478.366	121.009
481.259	122.535
484.152	114.434
487.044	96.0574
489.937	83.6969
492.83	71.2786
495.722	59.0659
498.615	50.29
501.508	43.5162
504.4	41.9937
507.293	40.0247
510.186	39.129
513.079	36.264
515.971	30.0172
518.864	20.4437
521.757	13.5468
524.649	6.27942
527.542	2.54889
530.435	0.602295
533.327	5.0404
536.22	5.83325
539.113	0.389648
542.006	0.126892
544.898	1.6402
547.791	2.38867
550.684	3.34204
553.576	3.85608
556.469	1.00433
559.362	0.679138
562.255	1.36859
565.147	0.484924
568.04	2.96655
570.933	7.82886
573.825	16.5165
576.718	29.4358
579.611	47.6844
582.503	70.4536
585.396	81.6157
588.289	97.7956
591.181	99.7042
594.074	112.069
596.967	114.537
599.86	120.332
602.752	125.335
605.645	127.915
608.538	126.769
611.43	124.111
614.323	122.955
617.216	127.088
620.108	130.764
623.001	141.933
625.894	161.316
628.787	186.821
631.679	211.416
634.572	225.435
637.465	234.521
640.357	224.463
643.25	207.229
646.143	161.526
649.035	111.991
651.928	69.4387
654.821	35.316
657.713	17.0476
660.606	4.91504
663.499	6.28317
666.392	10.0038
669.284	22.0829
672.177	36.53
675.07	62.127
677.962	104.822
680.855	155.069
683.748	221.224
686.64	285.305
689.533	345.81
692.426	379.175
695.319	353.199
698.211	288.2
701.104	209.09
703.997	131.404
706.889	76.9063
709.782	44.2
712.675	21.1642
715.567	4.86096
718.46	1.60852
721.353	2.75088
724.246	2.07401
727.138	0.053741
730.031	0.590637
732.924	6.19489
735.816	7.07782
738.709	8.35452
741.602	9.89053
744.495	10.4689
747.387	12.7109
750.28	11.1982
753.173	10.1587
756.065	8.6001
758.958	9.0184
761.851	4.61749
764.743	3.45181
767.636	3.72116
770.529	2.90079
773.422	1.98541
776.314	1.34906
779.207	2.57544
782.1	1.27588
784.992	0.992645
787.885	2.60367
790.778	0.727386
793.67	1.79694
796.563	4.51425
799.456	2.37949
802.348	5.25931
805.241	4.24811
808.134	4.08636
811.027	3.57501
813.919	1.06155
816.812	3.53723
819.705	2.31085
822.597	1.18146
825.49	8.36871
828.383	17.9665
831.275	30.4592
834.168	47.1326
837.061	69.098
839.954	91.6527
842.846	128.397
845.739	168.499
848.632	216.747
851.524	267.124
854.417	314.058
857.31	340.047
860.202	334.692
863.095	310.979
865.988	282.236
868.881	248.763
871.773	226.107
874.666	206.818
877.559	195.864
880.451	191.077
883.344	183.423
886.237	171.81
889.13	155.541
892.022	140.241
894.915	126.262
897.808	113.945
900.7	109.174
903.593	104.242
906.486	100.613
909.378	108.897
912.271	126.723
915.164	148.811
918.057	187.118
920.949	236.298
923.842	280.739
926.735	330.586
929.627	367.138
932.52	378.559
935.413	371.065
938.305	345.132
941.198	308.341
944.091	273.097
946.984	247.012
949.876	228.019
952.769	211.724
955.662	201.765
958.554	188.463
961.447	169.067
964.34	141.329
967.232	118.802
970.125	98.5776
973.018	79.5027
975.91	70.2548
978.803	59.4695
981.696	44.9606
984.589	28.5135
987.481	11.3729
990.374	0.31131
993.267	8.25461
996.159	9.3765
999.052	11.9572
1001.95	12.9038
1004.84	6.53748
1007.73	3.3035
1010.62	3.30487
1013.52	8.12451
1016.41	22.9127
1019.3	27.4502
1022.19	38.8525
1025.09	44.5324
1027.98	48.4197
1030.87	58.6773
1033.77	65.0495
1036.66	74.6912
1039.55	83.1997
1042.44	79.8742
1045.34	69.2012
1048.23	53.3344
1051.12	42.3907
1054.01	30.6849
1056.91	24.1043
1059.8	13.8359
1062.69	6.79169
1065.58	3.9549
1068.48	1.31757
1071.37	3.17032
1074.26	4.16058
1077.15	9.77539
1080.05	3.99808
1082.94	5.91931
1085.83	8.28232
1088.73	9.99033
1091.62	10.0934
1094.51	11.7161
1097.4	13.6875
1100.3	15.1295
1103.19	24.0483
1106.08	29.8093
1108.97	36.2435
1111.87	33.8427
1114.76	29.432
1117.65	18.4079
1120.55	15.4682
1123.44	9.35677
1126.33	7.83043
1129.22	7.42351
1132.12	8.40849
1135.01	6.44397
1137.9	5.29846
1140.79	3.66347
1143.69	4.1872
1146.58	3.14761
1149.47	5.41685
1152.37	6.56625
1155.26	5.68411
1158.15	3.98863
1161.04	1.93404
1163.94	5.50012
1166.83	2.31612
1169.72	3.06647
1172.61	3.23271
1175.51	0.885834
1178.4	4.12026
1181.29	0.370346
1184.18	0.521683
1187.08	0.796707
1189.97	1.65701
1192.86	1.5352
1195.76	3.33086
1198.65	1.93356
1201.54	0.751205
1204.43	1.66887
1207.33	1.61832
1210.22	2.36041
1213.11	3.0601
1216.01	3.47885
1218.9	1.35756
1221.79	2.07674
1224.68	0.608719
1227.58	2.00133
1230.47	1.26923
1233.36	0.657288
1236.25	3.75087
1239.15	4.38733
1242.04	1.45044
1244.93	2.03339
1247.82	2.63655
1250.72	2.01083
1253.61	2.87424
1256.5	0.852341
1259.39	2.43027
1262.29	0.229767
1265.18	2.10977
1268.07	1.92241
1270.97	0.059891
