Measurement: Raman, 785 nm, unoriented, Raman Data Processed
Mineral: Vesuvianite
Rruff sample: R050035
Ideal chemistry: (Ca,Na)_19_(Al,Mg,Fe^3+^)_13_(SiO_4_)_10_(Si_2_O_7_)_4_(OH,F,O)_10_
Locality: Olmsteadville, New York, USA
Source: University of Arizona Mineral Museum
Description: Brown single crystal fragment
Measured chemistry: (Ca_18.66_Na_0.34_)_Σ=19_(Al_9.16_Mg_1.28_Ti_1.21_Fe^3+^_0.89_Fe^2+^_0.46_)_Σ=13_Si_18_O_68_((OH)_4.70_F_3.18_O_2.12_)_Σ=10_
Raman shift (cm-1)	intensity
161.999	0
164.892	1.18897
167.785	31.9955
170.677	76.8115
173.57	68.8376
176.463	125.614
179.356	178.58
182.248	233.288
185.141	261.563
188.034	243.491
190.926	200.04
193.819	98.0233
196.712	98.8909
199.604	70.9441
202.497	101.46
205.39	116.126
208.282	180.935
211.175	240.946
214.068	219.455
216.961	270.449
219.853	254.915
222.746	272.128
225.639	189.525
228.531	87.845
231.424	60.6658
234.317	72.2407
237.209	91.426
240.102	120.879
242.995	132.196
245.888	117.052
248.78	158.31
251.673	207.596
254.566	298.074
257.458	315.013
260.351	282.306
263.244	177.783
266.137	111.061
269.029	70.1038
271.922	89.9714
274.815	122.791
277.707	176.677
280.6	273.932
283.493	368.353
286.385	476.677
289.278	451.363
292.171	345.6
295.063	284.154
297.956	124.056
300.849	15.3445
303.742	27.4985
306.634	59.0015
309.527	17.5071
312.42	29.2734
315.312	1.41406
318.205	54.8467
321.098	56.7598
323.99	121.427
326.883	156.648
329.776	200.284
332.669	226.102
335.561	267.964
338.454	283.959
341.347	327.351
344.239	329.832
347.132	478.127
350.025	473.518
352.918	570.379
355.81	671.233
358.703	743.02
361.596	880.415
364.488	1025.74
367.381	1111.78
370.274	1180.67
373.166	1147.82
376.059	1014.07
378.952	826.799
381.844	690.554
384.737	549.037
387.63	476.637
390.523	440.015
393.415	390.984
396.308	374.679
399.201	432.58
402.093	426.229
404.986	453.848
407.879	465.935
410.772	469.444
413.664	439.955
416.557	366.976
419.45	300.622
422.342	181.797
425.235	88.1272
428.128	71.9456
431.02	13.1282
433.913	20.1528
436.806	0.094482
439.699	2.40259
442.591	17.0747
445.484	16.6062
448.377	25.0654
451.269	84.5566
454.162	107.407
457.055	124.271
459.947	120.681
462.84	108.482
465.733	116.018
468.625	101.873
471.518	85.8596
474.411	34.8413
477.304	10.5406
480.196	8.19385
483.089	1.77405
485.982	18.3524
488.874	2.9154
491.767	41.0444
494.66	24.4846
497.553	22.7566
500.445	25.4817
503.338	25.9445
506.231	67.549
509.123	85.4802
512.016	99.5829
514.909	71.2939
517.802	83.1179
520.694	57.438
523.587	67.2575
526.48	39.7835
529.372	48.2031
532.265	60.1293
535.158	79.7797
538.05	57.197
540.943	97.8179
543.836	100.929
546.729	135.397
549.621	103.82
552.514	140.083
555.407	90.4408
558.299	45.1578
561.192	8.75476
564.085	3.36072
566.977	5.38867
569.87	19.3543
572.763	25.2707
575.655	64.8831
578.548	59.4453
581.441	81.1137
584.333	104.852
587.226	176.435
590.119	219.268
593.012	233.701
595.904	276.44
598.797	317.553
601.69	352.057
604.582	418.329
607.475	473.105
610.368	505.429
613.26	522.179
616.153	554.037
619.046	544.466
621.939	560.293
624.831	544.764
627.724	504.634
630.617	489.809
633.509	473.625
636.402	429.339
639.295	400.902
642.188	340.855
645.08	304.086
647.973	199.321
650.866	180.228
653.758	84.4045
656.651	30.672
659.544	5.02612
662.436	10.2406
665.329	48.9337
668.222	6.44434
671.115	13.3187
674.007	21.4823
676.9	65.9894
679.793	136.325
682.685	236.653
685.578	358.567
688.471	488.504
691.363	633.68
694.256	714.961
697.149	585.773
700.042	412.154
702.934	243.231
705.827	138.968
708.72	58.7906
711.612	18.0863
714.505	5.45239
717.398	0.163208
720.29	14.2602
723.183	29.5547
726.076	117.386
728.968	210.501
731.861	261.153
734.754	403.664
737.647	517.437
740.539	674.905
743.432	743.989
746.325	837.74
749.217	869.918
752.11	896.879
755.003	832.281
757.895	737.93
760.788	595.193
763.681	426.217
766.574	292.627
769.466	201.061
772.359	189.226
775.252	115.144
778.144	108.117
781.037	71.4774
783.93	9.74158
786.822	50.5258
789.715	68.657
792.608	60.8471
795.501	91.5186
798.393	65.2032
801.286	93.8573
804.179	89.2909
807.071	45.0092
809.964	37.4757
812.857	34.4684
815.75	33.4952
818.642	63.6786
821.535	5.71204
824.428	12.6938
827.32	45.6193
830.213	14.2094
833.106	22.3191
835.998	20.1556
838.891	62.9727
841.784	70.2924
844.677	105.932
847.569	177.827
850.462	255.89
853.355	291.327
856.247	357.013
859.14	420.344
862.033	435.439
864.925	467.065
867.818	493.012
870.711	441.141
873.604	450.229
876.496	394.701
879.389	345.689
882.282	266.813
885.174	243.97
888.067	183.951
890.96	126.981
893.852	87.0653
896.745	57.6674
899.638	58.3274
902.53	99.8951
905.423	100.276
908.316	152.799
911.209	241.76
914.101	349.999
916.994	465.786
919.887	548.857
922.779	597.208
925.672	610.822
928.565	578.476
931.457	537.773
934.35	472.782
937.243	459.502
940.136	452.492
943.028	399.608
945.921	426.807
948.814	443.369
951.706	414.741
954.599	454.114
957.492	459.153
960.385	505.381
963.277	457.552
966.17	416.215
969.063	333.027
971.955	215.517
974.848	202.178
977.741	148.85
980.633	114.956
983.526	82.3232
986.419	68.8307
989.312	25.4763
992.204	13.261
995.097	10.278
997.99	27.3892
1000.88	8.76245
1003.77	5.67712
1006.67	13.3709
1009.56	56.348
1012.45	7.69849
1015.35	40.8772
1018.24	68.8597
1021.13	73.558
1024.02	70.5101
1026.92	74.5286
1029.81	112.322
1032.7	121.528
1035.6	165.213
1038.49	205.686
1041.38	227.661
1044.27	233.468
1047.17	244.121
1050.06	199.538
1052.95	107.327
1055.84	94.3899
1058.74	57.8629
1061.63	7.94409
1064.52	6.05188
1067.41	24.4443
1070.31	0.619385
1073.2	31.7561
1076.09	2.62146
1078.98	4.51282
1081.88	3.3562
1084.77	23.238
1087.66	19.3514
1090.56	35.0088
1093.45	52.962
1096.34	65.9564
1099.23	96.1054
1102.13	85.9108
1105.02	135.968
1107.91	167.627
1110.81	192.52
1113.7	230.896
1116.59	231.851
1119.48	276.204
1122.38	261.673
1125.27	294.56
1128.16	313.062
1131.05	300.678
1133.95	315.694
1136.84	380.691
1139.73	380.386
1142.62	432.043
1145.52	489.523
1148.41	530.061
1151.3	564.725
1154.19	637.244
1157.09	749.339
1159.98	784.224
1162.87	891.197
1165.77	922.588
1168.66	1027.86
1171.55	1042.81
1174.44	1090.16
1177.34	1065.26
1180.23	972.468
1183.12	919.848
1186.02	817.443
1188.91	692.806
1191.8	603.451
1194.69	458.349
1197.59	373.225
1200.48	267.879
1203.37	204.431
1206.26	107.778
1209.16	77.2649
1212.05	29.5413
1214.94	4.23657
1217.84	14.6711
1220.73	3.55005
1223.62	29.4416
1226.51	17.5076
1229.41	7.99707
1232.3	3.13696
1235.19	8.01099
