Measurement: Raman, 514 nm, unoriented, Raman Data Processed
Mineral: Vesuvianite
Rruff sample: R050035
Ideal chemistry: (Ca,Na)_19_(Al,Mg,Fe^3+^)_13_(SiO_4_)_10_(Si_2_O_7_)_4_(OH,F,O)_10_
Locality: Olmsteadville, New York, USA
Source: University of Arizona Mineral Museum
Description: Brown single crystal fragment
Measured chemistry: (Ca_18.66_Na_0.34_)_Σ=19_(Al_9.16_Mg_1.28_Ti_1.21_Fe^3+^_0.89_Fe^2+^_0.46_)_Σ=13_Si_18_O_68_((OH)_4.70_F_3.18_O_2.12_)_Σ=10_
Raman shift (cm-1)	intensity
101.732	0
105.908	257.499
110.082	896.331
114.254	1964.98
118.424	1322.42
122.592	475.431
126.758	46.812
130.922	194.444
135.083	117.129
139.243	471.903
143.401	343.189
147.557	270.432
151.711	69.052
155.863	155.941
160.013	94.213
164.161	569.569
168.308	949.614
172.452	1292
176.594	1559.45
180.734	1843.68
184.872	2319.34
189.008	1902.06
193.143	1398.63
197.275	1127.45
201.405	709.674
205.534	978.475
209.66	1257.33
213.784	1916.85
217.907	3416.51
222.027	4323.95
226.146	3954.83
230.263	2383.49
234.377	1755.19
238.49	1739.92
242.601	1471.57
246.709	1344.05
250.816	1544.25
254.921	2061.07
259.024	2125.42
263.125	1077.21
267.224	476.762
271.321	309.576
275.416	205.457
279.51	536.787
283.601	1088.73
287.69	1655.17
291.778	1744.96
295.863	1377.63
299.947	888.883
304.029	454.191
308.108	465.147
312.186	738.787
316.262	1640.02
320.336	2622.88
324.408	4048.47
328.478	4599.17
332.546	4614.97
336.612	3828.99
340.677	2995.16
344.739	2562.33
348.799	2331.29
352.858	2331.18
356.915	2282.66
360.969	2401.68
365.022	3238.87
369.073	4106.81
373.122	4425.44
377.169	3948.73
381.215	2781.57
385.258	1865.93
389.299	1532.77
393.339	1750.07
397.376	2833.79
401.412	3989.89
405.446	5565.34
409.478	6971.1
413.508	7463.14
417.536	6897.44
421.562	5216.96
425.586	3262.67
429.609	1714.6
433.629	1109.06
437.648	496.016
441.665	184.396
445.68	199.16
449.693	436.265
453.704	611.675
457.713	453.358
461.721	517.307
465.726	241.457
469.73	142.779
473.731	114.207
477.731	209.632
481.729	304.459
485.725	308.733
489.72	35.509
493.712	210.035
497.703	679.498
501.691	1461.36
505.678	2473.56
509.663	3019.9
513.646	3356.13
517.627	3371.54
521.607	2960.8
525.584	2531.91
529.56	2459.36
533.534	2395.15
537.506	2881.27
541.476	2874.72
545.444	3276.49
549.41	3329.58
553.375	3462
557.337	3197.74
561.298	2590.8
565.257	2245.18
569.214	2279.9
573.17	1983.94
577.123	2471.33
581.075	2531.06
585.024	2757.14
588.972	3200.57
592.918	3664.38
596.863	4499.55
600.805	5282.09
604.746	5967.01
608.685	6512.32
612.621	6529.02
616.557	6740.14
620.49	5977.68
624.421	4754.65
628.351	3951.09
632.279	2879.88
636.205	2161.56
640.129	1615.44
644.051	1016.32
647.972	505.277
651.89	23.484
655.807	250.806
659.722	760.979
663.636	1054.15
667.547	991.601
671.457	1039.15
675.365	479.904
679.271	209.76
683.175	1605.14
687.077	4228.56
690.978	8362.05
694.877	10500.8
698.774	8474.41
702.669	4572.35
706.562	2317.52
710.454	1204.96
714.344	1016.7
718.232	1812.79
722.118	3543.25
726.002	5817.12
729.885	9539.45
733.766	13337.3
737.645	18975.6
741.522	24810.5
745.397	31404
749.271	35511.1
753.143	37042.9
757.013	34824.3
760.881	30256.6
764.748	23973.5
768.613	18760.3
772.476	16102
776.337	15746
780.196	15257.6
784.054	14317
787.91	12681.4
791.764	11376.1
795.616	10621.5
799.467	9174.83
803.316	8152.81
807.163	7563.56
811.008	6722.48
814.851	6457.03
818.693	5745.44
822.533	5263.41
826.371	4664.93
830.208	4151.38
834.042	3941.97
837.875	4102.13
841.706	4521.36
845.536	4994.66
849.363	5684.94
853.189	6665.22
857.013	8394.43
860.836	9114.52
864.656	10330.5
868.475	10736.4
872.292	10650.2
876.108	10207.8
879.922	9776.23
883.733	9356.5
887.544	8865.57
891.352	8368.46
895.159	8065.14
898.964	7701.59
902.767	7795.81
906.568	8377.78
910.368	9409.46
914.166	10741.8
917.962	12555.9
921.757	14712.9
925.55	16446.9
929.341	17072.2
933.13	16821.4
936.918	16465.5
940.703	16802.1
944.488	17275.1
948.27	17515.2
952.051	17951.7
955.83	18092.3
959.607	17519.7
963.383	16744
967.156	14950.6
970.928	12790.1
974.699	10792.8
978.468	9297.74
982.234	8302.98
986	7730.68
989.763	6785.38
993.525	5614.06
997.285	4804.98
1001.04	4562.15
1004.8	4208.38
1008.55	4497.31
1012.31	4823.83
1016.06	4929.62
1019.81	5168.71
1023.56	5460.22
1027.31	5519.98
1031.05	5562.15
1034.79	5810.36
1038.53	6714.76
1042.27	8808.25
1046.01	10241.1
1049.75	8500.54
1053.48	5623.6
1057.22	3585.04
1060.95	1718.24
1064.68	744.38
1068.4	125.979
1072.13	137.66
1075.86	199.554
1079.58	323.041
1083.3	424.178
1087.02	335.146
1090.74	464.083
1094.45	374.563
1098.17	422.134
1101.88	360.719
1105.59	225.648
1109.3	257.385
1113.01	146.981
1116.71	114.364
1120.42	287.664
1124.12	438.616
1127.82	119.113
1131.52	179.543
1135.22	170.98
1138.91	197.583
1142.61	202.83
1146.3	129.015
1149.99	233.538
1153.68	359.109
1157.37	439.368
1161.06	434.713
1164.74	476.545
1168.42	618.715
1172.1	547.053
1175.78	715.875
1179.46	690.523
1183.14	713.329
1186.81	720.907
1190.48	784.651
1194.15	828.23
1197.83	861.63
1201.49	919.419
1205.16	973.776
1208.82	889.106
1212.49	1057.23
1216.15	1059.52
1219.81	1041.53
1223.46	1035.19
1227.12	951.979
1230.78	902.796
1234.43	911.579
1238.08	833.995
1241.73	692.493
1245.38	685.198
1249.03	529.972
1252.67	585.969
1256.31	424.377
1259.95	367.14
1263.6	303.018
1267.23	371.064
1270.87	404.865
1274.51	332.968
1278.14	383.144
1281.77	335.188
1285.4	293.48
1289.03	240.499
1292.66	140.656
1296.28	201.402
1299.91	243.838
1303.53	185.441
1307.15	253.178
1310.77	205.706
1314.38	83.649
1318	122.414
1321.61	122.612
1325.23	194.569
1328.84	263.8
1332.45	210.371
1336.06	126.169
1339.66	66.477
1343.27	78.604
1346.87	100.651
1350.47	150.559
1354.07	212.744
1357.67	261.854
1361.26	226.596
1364.86	203.824
1368.45	326.574
1372.04	176.577
1375.63	297.792
1379.22	210.521
1382.81	199.053
1386.39	212.271
1389.98	152.189
1393.56	173.491
1397.14	85.548
1400.72	180.311
1404.3	100.812
1407.87	76.024
1411.45	35.818
1415.02	122.896
1418.59	141.47
1422.16	141.185
1425.73	119.147
1429.29	124.544
1432.86	172.148
1436.42	184.053
1439.98	213.003
1443.54	66.203
1447.1	155.822
1450.66	5.021
1454.21	93.512
1457.77	202.226
1461.32	434.645
1464.87	237.613
1468.42	0
