Measurement: Raman, 532 nm, unoriented, Raman Data Processed
Mineral: Vesuvianite
Rruff sample: R050233
Ideal chemistry: (Ca,Na)_19_(Al,Mg,Fe^3+^)_13_(SiO_4_)_10_(Si_2_O_7_)_4_(OH,F,O)_10_
Locality: Ludwig, Nevada, USA
Source: Marcus Origlieri
Description: Pale green euhedral single crystal
Measured chemistry: Ca_19.00_(Al_10.04_Mg_2.54_Fe^2+^_0.42_)_Σ=13_(Si_17.96_Al_0.04_)_Σ=18_O_68_((OH)_9.66_F_0.34_)_Σ=10_ ; Boron not analyzed.
Raman shift (cm-1)	intensity
136.414	0
139.789	55.9988
143.164	47.3838
146.538	23.6125
149.913	1.05078
153.288	18.3772
156.663	88.0083
160.038	144.886
163.412	230.383
166.787	270.938
170.162	296.3
173.537	309.043
176.912	304.285
180.286	274.625
183.661	211.125
187.036	144.56
190.411	62.6504
193.786	27.0923
197.161	12.5483
200.535	21.1597
203.91	52.9629
207.285	111.27
210.66	196.638
214.035	279.984
217.41	328.544
220.784	255.364
224.159	149.492
227.534	81.8135
230.909	21.7441
234.284	15.9585
237.658	23.5561
241.033	2.31201
244.408	20.8648
247.783	113.325
251.158	233.186
254.532	375.176
257.907	340.314
261.282	152.681
264.657	51.7437
268.032	32.898
271.407	66.2676
274.781	114.399
278.156	204.37
281.531	286.625
284.906	357.037
288.281	390.683
291.656	367.438
295.03	279.647
298.405	192.221
301.78	150.037
305.155	98.8379
308.529	49.2461
311.904	6.80615
315.279	0.939941
318.654	15.6465
322.029	26.4526
325.404	42.5015
328.778	36.855
332.153	25.3643
335.528	13.6406
338.903	5.73193
342.278	14.626
345.652	42.8931
349.027	113.357
352.402	198.271
355.777	289.573
359.152	402.164
362.527	481.966
365.901	509.691
369.276	446.408
372.651	355.587
376.026	276.5
379.401	227.758
382.776	194.591
386.15	157.257
389.525	172.99
392.9	212.504
396.275	270.386
399.65	374.652
403.024	474.938
406.399	530.539
409.774	546.769
413.149	497.11
416.524	412.648
419.899	298.84
423.273	191.803
426.648	99.959
430.023	35.8589
433.398	3.43359
436.773	2.45508
440.147	16.3564
443.522	4.14697
446.897	24.1919
450.272	42.9438
453.647	67.1943
457.021	88.8457
460.396	92.3638
463.771	113.939
467.146	159.403
470.521	200.451
473.896	244.743
477.27	271.454
480.645	259.502
484.02	255.239
487.395	215.355
490.77	168.913
494.144	134.021
497.519	120.157
500.894	89.7778
504.269	72.3486
507.644	60.1216
511.019	44.3565
514.393	48.4145
517.768	38.9976
521.143	22.0498
524.518	0.76709
527.893	5.39356
531.267	4.84375
534.642	1.61377
538.017	2.84961
541.392	9.32812
544.767	23.5747
548.141	20.4028
551.516	10.8931
554.891	0.272461
558.266	4.81494
561.641	6.65283
565.016	8.2085
568.39	6.80029
571.765	15.5557
575.14	59.543
578.515	105.942
581.89	180.151
585.264	219.701
588.639	250.787
592.014	292.633
595.389	337.275
598.764	386.695
602.139	417.576
605.513	442.261
608.888	441.784
612.263	454.804
615.638	470.582
619.013	479.489
622.387	530.938
625.762	613.117
629.137	731.106
632.512	839.138
635.887	900.7
639.261	894.632
642.636	804.34
646.011	637.062
649.386	428.235
652.761	237.75
656.136	119.673
659.51	72.7573
662.885	62.9248
666.26	49.5137
669.635	55.4448
673.01	96.6694
676.385	185.174
679.759	302.986
683.134	465.269
686.509	624.193
689.884	769.996
693.259	815.68
696.633	707.39
700.008	532.079
703.383	343.578
706.758	192.078
710.133	87.2852
713.507	27.4873
716.882	7.5708
720.257	11.7319
723.632	9.03516
727.007	10.0049
730.381	3.63379
733.756	6.04297
737.131	9.10254
740.506	10.0127
743.881	18.4507
747.256	28.439
750.63	21.4165
754.005	14.4854
757.38	7.48535
760.755	22.1011
764.13	24.8369
767.505	21.2354
770.879	18.5059
774.254	11.811
777.629	1.01025
781.004	5.99902
784.379	5.23096
787.753	7.55713
791.128	6.56592
794.503	10.7363
797.878	1.94629
801.253	10.0181
804.627	0.057129
808.002	2.24072
811.377	3.51416
814.752	24.3633
818.127	25.1421
821.501	12.9292
824.876	10.1675
828.251	17.4097
831.626	43.6846
835.001	99.2485
838.376	161.133
841.75	233.414
845.125	344.921
848.5	475.935
851.875	619.525
855.25	760.625
858.625	798.588
861.999	739.624
865.374	659.175
868.749	586.965
872.124	519.039
875.499	464.304
878.873	418.812
882.248	407.946
885.623	391.804
888.998	371.987
892.373	344.997
895.747	293.075
899.122	255.058
902.497	247.176
905.872	238.376
909.247	250.208
912.622	300.112
915.996	367.644
919.371	486.564
922.746	619.962
926.121	777.385
929.496	901.756
932.87	934.036
936.245	876.311
939.62	758.004
942.995	667.499
946.37	574.083
949.745	514.218
953.119	483.719
956.494	452.997
959.869	417.348
963.244	355.476
966.619	285.622
969.994	239.85
973.368	197.46
976.743	179.887
980.118	143.551
983.493	106.622
986.867	53.7129
990.242	14.4644
993.617	0.709961
996.992	23.9448
1000.37	33.1812
1003.74	31.563
1007.12	10.7241
1010.49	3.44531
1013.87	34.1597
1017.24	64.5425
1020.62	69.0713
1023.99	93.2915
1027.37	99.0259
1030.74	131.96
1034.12	162.503
1037.49	192.698
1040.87	190.096
1044.24	162.787
1047.61	132.423
1050.99	92.7988
1054.36	68.7466
1057.74	45.3389
1061.11	16.6929
1064.49	10.8027
1067.86	5.17822
1071.24	2.49121
1074.61	4.55322
1077.99	17.0405
1081.36	17.5117
1084.74	15.5483
1088.11	13.7266
1091.49	18.1704
1094.86	21.8447
1098.24	32.103
1101.61	48.9761
1104.99	61.646
1108.36	87.0342
1111.74	72.7573
1115.11	56.0005
1118.48	48.4019
1121.86	37.7998
1125.23	33.3594
1128.61	22.3325
1131.98	32.9321
1135.36	38.3892
1138.73	36.6318
1142.11	30.4351
1145.48	26.501
1148.86	26.936
1152.23	7.78027
1155.61	4.01514
1158.98	15.1148
1162.36	23.3159
1165.73	26.6748
1169.11	25.0884
1172.48	23.8096
1175.86	20.1719
1179.23	17.729
1182.61	11.0776
1185.98	0.657715
1189.36	31.9751
1192.73	31.6426
1196.11	22.2773
1199.48	1.98877
1202.86	16.6396
1206.23	12.0874
1209.61	10.3066
1212.98	16.2778
1216.36	18.4819
1219.73	10.2656
1223.11	8.75781
1226.48	16.4116
1229.85	15.9756
1233.23	26.2124
1236.6	15.0415
1239.98	1.18603
1243.35	8.0874
1246.73	6.43604
1250.1	16.187
1253.48	22.6689
1256.85	12.8315
1260.23	17.1875
1263.6	16.5083
1266.98	13.7808
1270.35	12.7241
1273.73	7.271
1277.1	11.2402
1280.48	7.28564
1283.85	19.8296
1287.23	15.9351
1290.6	24.7812
1293.98	12.0703
1297.35	0.78125
