Measurement: Raman, 780 nm, unoriented, Raman Data Processed
Mineral: Veszelyite
Rruff sample: R160003
Ideal chemistry: Cu^2+^_3_PO_4_(OH)_3_2H_2_O
Locality: Laochang ore field, Gejiu Co., Honghe Autonomous Prefecture, Yunnan Province, China
Source: Renato and Adriana Pagano
Description: Blue prismatic crystals
Raman shift (cm-1)	intensity
100.599	0
103.974	0.28479
107.349	8.42297
110.724	20.2966
114.099	50.4468
117.473	30.8584
120.848	34.1821
124.223	19.8262
127.598	25.9851
130.972	17.8683
134.347	14.1453
137.722	26.1973
141.097	20.127
144.472	19.4346
147.847	7.6878
151.221	0.057526
154.596	0.525452
157.971	6.32742
161.346	3.1926
164.721	11.9101
168.096	15.2953
171.47	27.0213
174.845	32.6817
178.22	37.8772
181.595	38.3633
184.97	43.2585
188.345	45.522
191.719	47.1011
195.094	53.0232
198.469	54.0135
201.844	55.1854
205.219	49.8599
208.593	44.642
211.968	41.6347
215.343	36.4763
218.718	33.0828
222.093	28.1439
225.468	30.4549
228.842	32.014
232.217	33.8406
235.592	34.7834
238.967	32.9402
242.341	29.8958
245.716	32.5584
249.091	25.8467
252.466	25.1069
255.841	28.4193
259.216	34.0466
262.591	33.1847
265.965	30.8217
269.34	28.983
272.715	24.534
276.09	21.7853
279.464	23.2711
282.839	17.9476
286.214	19.6062
289.589	12.2255
292.964	7.91858
296.339	2.18884
299.713	2.6424
303.088	0.549896
306.463	0.26416
309.838	2.60913
313.213	0.006393
316.587	0.642776
319.962	1.62935
323.337	1.56601
326.712	1.52483
330.087	2.29053
333.462	6.91388
336.837	3.7906
340.211	5.76491
343.586	11.2051
346.961	14.5098
350.336	20.2419
353.711	27.1971
357.085	29.4353
360.46	31.1662
363.835	31.697
367.21	31.2173
370.585	28.7882
373.959	27.6955
377.334	19.0074
380.709	17.7956
384.084	9.96994
387.459	6.65028
390.834	6.51732
394.208	5.4577
397.583	5.7343
400.958	7.17918
404.333	4.632
407.708	6.7421
411.082	4.55792
414.457	4.68587
417.832	5.32503
421.207	8.10341
424.582	2.24712
427.957	4.95587
431.331	4.97592
434.706	1.23183
438.081	2.58198
441.456	1.24815
444.831	0.948334
448.205	1.86369
451.58	5.0601
454.955	11.7133
458.33	16.2292
461.705	21.0217
465.079	25.3696
468.454	28.3682
471.829	31.144
475.204	26.5534
478.579	29.1757
481.954	32.5923
485.328	32.294
488.703	27.7495
492.078	23.5613
495.453	16.2328
498.828	15.2396
502.202	10.4627
505.577	10.7674
508.952	9.87549
512.327	10.7046
515.702	11.5064
519.077	11.692
522.451	8.55443
525.826	7.95796
529.201	3.83873
532.576	2.50595
535.951	0.78566
539.326	1.97359
542.7	4.32697
546.075	7.23396
549.45	14.1379
552.825	21.9427
556.2	26.0587
559.574	19.8367
562.949	14.1708
566.324	8.04553
569.699	6.64174
573.074	3.8076
576.448	6.16846
579.823	0.985985
583.198	4.85891
586.573	3.01335
589.948	3.48357
593.323	2.7628
596.697	1.36835
600.072	2.28345
603.447	0.627205
606.822	3.55555
610.197	5.51685
613.572	1.29232
616.946	1.64967
620.321	4.52172
623.696	4.16076
627.071	1.49745
630.446	3.5478
633.82	5.41923
637.195	5.47319
640.57	3.03902
643.945	3.28475
647.32	0.346016
650.694	1.61031
654.069	1.94199
657.444	3.2684
660.819	1.89535
664.194	0.796776
667.569	4.06296
670.943	3.15739
674.318	0.73687
677.693	0.602249
681.068	1.09486
684.443	1.05385
687.817	3.54721
691.192	0.16378
694.567	0.372467
697.942	1.70505
701.317	2.55785
704.692	2.52124
708.066	2.58481
711.441	0.521339
714.816	0.858704
718.191	1.15416
721.566	2.69793
724.941	2.59363
728.315	3.83646
731.69	1.28069
735.065	0.615051
738.44	0.707184
741.815	0.277908
745.189	0.492783
748.564	3.98567
751.939	0.281876
755.314	1.02956
758.689	5.05624
762.063	0.077759
765.438	0.285797
768.813	3.38658
772.188	0.712097
775.563	1.51778
778.938	0.473251
782.312	1.66682
785.687	5.89966
789.062	4.30577
792.437	3.44333
795.812	4.84813
799.187	2.8378
802.561	3.72653
805.936	5.07054
809.311	4.2377
812.686	7.22739
816.061	3.55565
819.435	6.74161
822.81	7.31773
826.185	6.05359
829.56	7.17744
832.935	9.88207
836.309	12.1951
839.684	13.5425
843.059	9.51408
846.434	9.95274
849.809	12.0051
853.184	10.5404
856.558	14.7193
859.933	13.6516
863.308	11.6243
866.683	14.4292
870.058	13.8852
873.433	9.22076
876.807	9.19755
880.182	9.68684
883.557	9.29076
886.932	8.08113
890.307	3.87545
893.681	0.638115
897.056	2.32036
900.431	3.35103
903.806	3.46342
907.181	3.09652
910.556	1.73816
913.93	3.09681
917.305	0.098602
920.68	2.76452
924.055	0.134659
927.43	0.684586
930.804	0.797722
934.179	2.28421
937.554	5.0031
940.929	6.36627
944.304	5.96407
947.678	11.3964
951.053	18.5617
954.428	32.8987
957.803	56.3699
961.178	78.0237
964.553	76.1711
967.927	43.2189
971.302	20.0123
974.677	9.39594
978.052	9.09273
981.427	4.76911
984.802	3.24424
988.176	1.16683
991.551	4.34039
994.926	0.271927
998.301	2.02386
1001.68	0.740204
1005.05	1.18216
1008.42	5.70889
1011.8	5.6805
1015.17	7.05902
1018.55	7.02843
1021.92	9.15621
1025.3	10.9901
1028.67	13.7757
1032.05	20.6683
1035.42	26.8519
1038.8	33.2351
1042.17	36.7109
1045.55	30.3818
1048.92	17.6127
1052.3	9.53341
1055.67	5.45794
1059.05	4.41045
1062.42	5.66077
1065.8	8.00812
1069.17	2.26012
1072.55	0.147209
1075.92	3.50727
1079.3	4.13457
1082.67	2.19279
1086.05	3.89356
1089.42	1.68541
1092.8	2.58086
1096.17	2.98576
1099.55	1.83575
1102.92	1.34589
1106.3	4.91958
1109.67	0.765862
1113.05	2.75969
1116.42	0.574242
1119.79	2.07778
1123.17	1.38421
1126.54	1.00212
1129.92	2.46272
1133.29	3.03876
1136.67	0.285645
1140.04	2.51857
1143.42	0.799896
1146.79	2.47076
1150.17	4.70176
1153.54	4.9522
1156.92	1.62597
1160.29	2.47514
1163.67	4.58751
1167.04	0.396957
1170.42	2.86837
1173.79	4.49644
1177.17	0.288757
1180.54	6.43591
1183.92	3.06117
1187.29	4.82266
1190.66	2.73557
1194.04	5.9076
1197.41	3.75161
1200.79	5.36633
1204.16	4.01358
1207.54	1.66563
1210.91	3.90992
1214.29	7.24721
1217.66	3.85059
1221.04	7.60719
1224.41	6.92732
1227.79	5.53188
1231.16	1.44884
1234.54	3.07976
1237.91	3.03
1241.29	3.4154
1244.66	5.99921
1248.04	0.381073
1251.41	2.64352
1254.79	3.5039
1258.16	2.18291
1261.54	3.5321
1264.91	0.706673
1268.29	1.29272
1271.66	3.70942
1275.04	5.93747
1278.41	2.78673
1281.79	2.27801
