Measurement: Raman, 785 nm, unoriented, Raman Data Processed
Mineral: Veszelyite
Rruff sample: R070312
Ideal chemistry: Cu^2+^_3_PO_4_(OH)_3_2H_2_O
Locality: Black Pine mine, Flint Creek Valley, near Philipsburg, Granite County, Montana, USA
Source: James Shigley
Description: Blue prismatic crystals associated with pyromorphite and quartz
Measured chemistry: (Cu^2+^_1.79_Zn_1.21_)_Σ=3_(P_1.00_O_4_)(OH)_3_·2H_2_O; H_2_O estimated by difference; OH by charge balance
Raman shift (cm-1)	intensity
157.178	0
160.071	35.8383
162.964	44.9058
165.856	45.2223
168.749	81.1306
171.642	110.347
174.534	93.6245
177.427	91.4109
180.32	99.4969
183.212	115.251
186.105	136.987
188.998	142.472
191.891	151.998
194.783	130.681
197.676	98.9915
200.569	103.406
203.461	63.127
206.354	9.75745
209.247	16.1331
212.139	7.17633
215.032	12.4907
217.925	6.95334
220.818	11.1084
223.71	9.92099
226.603	29.7177
229.496	71.0777
232.388	81.1917
235.281	104.877
238.174	115.712
241.066	110.266
243.959	105.313
246.852	92.8651
249.745	95.9851
252.637	98.5347
255.53	107.364
258.423	142.489
261.315	149.409
264.208	155.823
267.101	155.738
269.993	145.226
272.886	150.953
275.779	143.739
278.672	139.338
281.564	91.5858
284.457	89.5588
287.35	81.9411
290.242	45.6563
293.135	43.7381
296.028	28.5757
298.921	15.6534
301.813	18.7031
304.706	9.42642
307.599	21.6763
310.491	33.6933
313.384	15.8163
316.277	19.2548
319.169	15.2111
322.062	16.3934
324.955	12.473
327.847	4.07068
330.74	6.70834
333.633	7.30225
336.526	7.17011
339.418	1.06241
342.311	3.478
345.204	16.7949
348.096	37.719
350.989	33.2764
353.882	59.1313
356.774	86.0742
359.667	107.305
362.56	147.19
365.452	136.133
368.345	207.314
371.238	201.876
374.131	203.629
377.023	227.414
379.916	190.542
382.809	197.52
385.701	181.342
388.594	135.81
391.487	131.207
394.38	124.576
397.272	120.981
400.165	108.291
403.058	91.6249
405.95	66.6036
408.843	38.3162
411.736	40.7552
414.628	22.6197
417.521	6.97101
420.414	5.12561
423.307	0.779907
426.199	4.5545
429.092	6.57327
431.985	9.3114
434.877	7.6318
437.77	2.63202
440.663	6.31567
443.555	23.2687
446.448	14.354
449.341	30.3406
452.234	38.9231
455.126	83.8185
458.019	106.148
460.912	154.133
463.804	190.108
466.697	202.947
469.59	221.096
472.483	236.469
475.375	233.829
478.268	220.96
481.161	248.406
484.053	211.107
486.946	202.554
489.839	195.904
492.731	145.458
495.624	117.203
498.517	93.0076
501.409	68.9659
504.302	52.1379
507.195	29.0095
510.088	22.5985
512.98	40.1354
515.873	41.6344
518.766	34.7448
521.658	43.1264
524.551	40.7453
527.444	54.0243
530.337	45.59
533.229	49.3789
536.122	45.2649
539.015	32.243
541.907	35.4413
544.8	47.8069
547.693	45.9071
550.585	79.4305
553.478	90.3107
556.371	88.4692
559.263	89.1025
562.156	67.9091
565.049	2.88446
567.942	6.2081
570.834	2.49197
573.727	1.0542
576.62	16.5092
579.512	4.01288
582.405	25.8145
585.298	19.1648
588.19	6.43848
591.083	10.0581
593.976	2.4231
596.869	6.88983
599.761	21.7749
602.654	20.3963
605.547	14.646
608.439	29.8034
611.332	42.8596
614.225	46.8766
617.117	68.166
620.01	61.2841
622.903	31.7801
625.795	44.8305
628.688	42.7833
631.581	44.4434
634.474	16.4506
637.366	14.1774
640.259	3.87595
643.152	5.0918
646.044	5.55444
648.937	17.7669
651.83	21.4865
654.722	6.80304
657.615	38.1188
660.508	11.2782
663.401	20.7133
666.293	14.4827
669.186	16.5221
672.079	0.196472
674.971	3.61469
677.864	12.2741
680.757	8.10324
683.649	16.8258
686.542	5.3223
689.435	21.7993
692.328	21.3323
695.22	18.7542
698.113	20.7337
701.006	10.6623
703.898	35.653
706.791	24.2211
709.684	32.2074
712.577	11.175
715.469	22.2943
718.362	14.3399
721.255	5.62701
724.147	23.9681
727.04	17.9451
729.933	22.5683
732.825	34.6836
735.718	33.5944
738.611	17.2313
741.504	36.7692
744.396	3.79956
747.289	13.5315
750.182	4.65558
753.074	19.7411
755.967	5.69113
758.86	17.0288
761.752	30.6868
764.645	16.1779
767.538	20.2838
770.431	25.1629
773.323	0.351471
776.216	22.8655
779.109	15.4641
782.001	20.4164
784.894	32.6388
787.787	21.617
790.679	30.055
793.572	3.81574
796.465	14.58
799.357	30.3202
802.25	21.0059
805.143	8.51486
808.036	11.5472
810.928	1.55627
813.821	0.888092
816.714	14.3572
819.606	29.655
822.499	28.2358
825.392	25.8145
828.284	11.0908
831.177	14.7775
834.07	15.3202
836.963	25.4647
839.855	18.116
842.748	27.6004
845.641	3.97531
848.533	18.2904
851.426	27.6242
854.319	8.21866
857.212	29.5067
860.104	25.8756
862.997	24.2043
865.89	13.1447
868.782	12.039
871.675	28.3796
874.568	6.12802
877.46	18.9931
880.353	12.828
883.246	10.7892
886.139	15.2904
889.031	1.25424
891.924	1.54852
894.817	23.8706
897.709	11.2877
900.602	22.9053
903.495	26.5721
906.388	24.7131
909.28	15.1947
912.173	21.7583
915.066	41.8055
917.958	32.2999
920.851	40.2054
923.744	62.5472
926.636	34.0276
929.529	48.2121
932.422	73.5676
935.314	42.6554
938.207	72.9115
941.1	66.5653
943.993	60.6762
946.885	77.3503
949.778	113.255
952.671	163.398
955.563	230.269
958.456	339.401
961.349	493.285
964.241	538.179
967.134	445.189
970.027	284.771
972.92	154.727
975.812	89.382
978.705	63.7493
981.598	33.9394
984.49	11.8123
987.383	1.16006
990.276	0.415771
993.168	9.39816
996.061	20.7752
998.954	0.089874
1001.85	25.5444
1004.74	2.69354
1007.63	10.6983
1010.52	24.7569
1013.42	48.4452
1016.31	49.7344
1019.2	59.6674
1022.1	58.2126
1024.99	86.3484
1027.88	92.2157
1030.77	115.889
1033.67	160.371
1036.56	172.574
1039.45	215.903
1042.34	211.527
1045.24	215.472
1048.13	164.374
1051.02	136.63
1053.91	91.7165
1056.81	53.8851
1059.7	46.2397
1062.59	17.5779
1065.49	3.76001
1068.38	15.8867
1071.27	4.75601
1074.16	30.9216
1077.06	9.05612
1079.95	17.5533
1082.84	20.9862
1085.73	2.03403
1088.63	18.8744
1091.52	15.1913
1094.41	19.3109
1097.31	6.61792
1100.2	24.2264
1103.09	3.40274
1105.98	30.241
1108.88	8.6701
1111.77	30.8183
1114.66	8.10953
1117.56	32.8774
1120.45	18.9149
1123.34	54.3285
1126.23	30.237
1129.12	8.76083
1132.02	21.2885
1134.91	4.77811
1137.8	12.2756
1140.7	15.177
1143.59	29.3242
1146.48	18.2876
1149.37	4.3732
1152.27	2.38397
1155.16	15.1971
1158.05	5.98383
1160.94	25.4267
1163.84	18.9286
1166.73	15.7618
1169.62	28.4086
1172.52	27.4161
1175.41	20.4192
1178.3	13.4858
1181.19	6.41144
1184.09	3.58945
1186.98	15.1372
1189.87	25.4401
1192.77	12.1646
1195.66	17.1884
1198.55	33.6729
1201.44	48.9917
1204.34	22.6808
1207.23	18.832
1210.12	6.07428
1213.01	22.3622
1215.91	0.290527
1218.8	1.73328
1221.69	22.7553
1224.58	32.7732
1227.48	39.7386
1230.37	9.02359
1233.26	11.7269
