Measurement: Raman, 532 nm, unoriented, Raman Data Processed
Mineral: Villiaumite
Rruff sample: R060916
Ideal chemistry: NaF
Locality: St. Hilaire, Quebec, Canada
Source: Royal Ontario Museum
Description: Reddish transparent single cleavage
Measured chemistry: Na_1.00_F_1.00_
Raman shift (cm-1)	intensity
124.416	0
127.79	6833.49
131.165	1615.57
134.54	424.258
137.915	4876.13
141.29	12201.8
144.665	14785.6
148.039	12374.5
151.414	8638.16
154.789	7223.97
158.164	7393.82
161.539	8702.24
164.913	8665.91
168.288	6552.32
171.663	4899.02
175.038	4462.75
178.413	4869.81
181.788	5931.99
185.162	6980.67
188.537	8750.55
191.912	10186.5
195.287	11417.9
198.662	12738.3
202.036	13196.1
205.411	13191.1
208.786	12361.3
212.161	10862
215.536	9584.12
218.911	8600.17
222.285	7023.7
225.66	5196.95
229.035	3804.89
232.41	2805.12
235.785	1882.61
239.159	1442.84
242.534	1205.5
245.909	1477.06
249.284	1848.2
252.659	1529.14
256.033	1301.44
259.408	3061.55
262.783	5331.7
266.158	6405.34
269.533	5594.86
272.908	3222.2
276.282	2151.86
279.657	1282.19
283.032	645.422
286.407	66.8594
289.782	127.078
293.156	390.328
296.531	816.812
299.906	394.547
303.281	645.219
306.656	1854.97
310.031	2442.5
313.405	2072.27
316.78	1884.41
320.155	1556.75
323.53	1927.17
326.904	2003.3
330.279	2179.91
333.654	1923.56
337.029	1827.55
340.404	1530.28
343.779	997.25
347.153	760.109
350.528	1427.16
353.903	1021.47
357.278	420.914
360.653	76.9453
364.027	38.3906
367.402	104.289
370.777	502.828
374.152	1029.84
377.527	1788.47
380.902	2188.11
384.276	2730.73
387.651	3780.62
391.026	4732.83
394.401	4621.87
397.776	4792.59
401.151	4864.42
404.525	5376.74
407.9	5198.44
411.275	5159.55
414.65	4984.08
418.024	4620.66
421.399	3454.64
424.774	2413.23
428.149	1192.47
431.524	868.922
434.899	208.477
438.273	44.0859
441.648	623.633
445.023	1192.65
448.398	1511.52
451.773	2178.75
455.147	2217.28
458.522	2296.27
461.897	2302.86
465.272	2442.52
468.647	2525.46
472.022	2434.9
475.396	1998.46
478.771	1117.41
482.146	725.766
485.521	1307.2
488.896	644.781
492.27	345.922
495.645	86.9844
499.02	348.18
502.395	693.367
505.77	188.594
509.144	176.219
512.519	6.8125
515.894	477.336
519.269	905.57
522.644	1666.71
526.019	1565.52
529.393	1765.41
532.768	2025.41
536.143	1923.93
539.518	2145.01
542.893	2787.09
546.268	3437.4
549.642	3666.38
553.017	3770.47
556.392	3712.21
559.767	3755.38
563.141	4072.43
566.516	4264.27
569.891	4889.2
573.266	5127.61
576.641	4792.67
580.016	4510.1
583.39	4459.48
586.765	4632.54
590.14	4323.95
593.515	4183.54
596.89	3848.12
600.264	3496.95
603.639	3578
607.014	3498.08
610.389	3100.43
613.764	2533.27
617.139	2566.6
620.513	2608.45
623.888	3003.09
627.263	2906.73
630.638	2415.93
634.013	2230.93
637.387	2333.82
640.762	2417.73
644.137	2495.94
647.512	2679.76
650.887	3002.85
654.261	3104.42
657.636	2557.91
661.011	2267.37
664.386	1755.49
667.761	1566.49
671.135	1584.23
674.51	808.125
677.885	500.188
681.26	873.742
684.635	983.227
688.01	892.523
691.384	849.961
694.759	486.07
698.134	350.914
701.509	24.2422
704.884	138.32
708.259	116.406
711.633	191.898
715.008	251.453
718.383	374.469
721.758	9.71094
725.133	53.3672
728.507	145.625
731.882	181.039
735.257	105.305
738.632	5.59375
742.007	181.266
745.381	1027.59
748.756	1589.17
752.131	961.039
755.506	1236.02
758.881	1136.43
762.255	532.633
765.63	428.297
769.005	1262.59
772.38	1584.09
775.755	1244.66
779.13	1106.67
782.504	1327.89
785.879	1316.69
789.254	1565.82
792.629	1919.94
796.004	1844.69
799.378	1723.96
802.753	1399.34
806.128	1531.34
809.503	1688.83
812.878	1547.92
816.253	1410.31
819.627	1247.36
823.002	1401.62
826.377	1445.48
829.752	1693.73
833.127	1370.48
836.501	977.875
839.876	1195.77
843.251	1029.09
846.626	1216.25
850.001	537.469
853.375	157.484
856.75	298
860.125	905.5
863.5	844.656
866.875	793.891
870.25	121.062
873.624	180.516
876.999	547.062
880.374	343.312
883.749	220.094
887.124	533.109
890.498	742.094
893.873	1551.91
897.248	1673.58
900.623	1025.81
903.998	590.328
907.372	312.031
910.747	93.7344
914.122	140.406
917.497	7.89062
920.872	47.7656
924.246	848.984
927.621	1164.92
930.996	1307.44
934.371	737.984
937.746	1300.52
941.121	664.375
944.495	374.078
947.87	583.797
951.245	164.453
954.62	125.078
957.995	492.438
961.37	628.359
964.744	791.891
968.119	50.8281
971.494	91
974.869	125.078
978.244	559.266
981.618	621.078
984.993	251.391
988.368	183.859
991.743	138.438
995.118	82.75
998.492	232.25
1001.87	893.812
1005.24	712.922
1008.62	329.328
1011.99	307.344
1015.37	90.4844
1018.74	291.609
1022.12	228.609
1025.49	1212.61
1028.87	1474.05
1032.24	938.375
1035.62	1132.84
1038.99	1719.38
1042.37	1252.44
1045.74	442.453
1049.12	565.969
1052.49	750.766
1055.86	1512.84
1059.24	1394.27
1062.61	1004.52
1065.99	657.391
1069.36	92.4688
1072.74	588.688
1076.11	472.578
1079.49	249.938
1082.86	19.5312
1086.24	980.047
1089.61	619.391
1092.99	951.781
1096.36	1526.64
1099.74	1809.73
1103.11	1710.69
1106.49	1898.2
1109.86	1204.33
1113.24	941.219
1116.61	1049.88
1119.99	477.891
1123.36	440.109
1126.73	891.953
1130.11	2244.38
1133.48	2182.86
1136.86	1417.2
1140.23	1078.72
1143.61	928.844
1146.98	303.969
1150.36	552.734
1153.73	1368.41
1157.11	1775.52
1160.48	990.078
1163.86	786.141
1167.23	283.344
1170.61	178.344
1173.98	1607.02
1177.36	1796.91
1180.73	1374.2
1184.11	2220.03
1187.48	1742.88
1190.86	750.188
1194.23	377.719
1197.61	673.391
1200.98	355.359
1204.36	295.438
1207.73	981.531
1211.11	933.531
1214.48	1334.53
1217.86	876.688
1221.23	375.531
1224.61	990.312
1227.98	1093.56
1231.36	1459.91
1234.73	1425.34
1238.1	2133.22
1241.48	1640.09
1244.85	2217.62
1248.23	2789.91
1251.6	2048.44
1254.98	894.031
1258.35	1810.06
1261.73	1203.44
1265.1	299.656
1268.48	937.219
1271.85	3180.09
1275.23	3206.84
1278.6	2368.62
1281.98	1189.62
1285.35	1099.12
1288.73	1024.88
1292.1	530.375
1295.48	7.65625
