Measurement: Raman, 532 nm, unoriented, Raman Data Processed
Mineral: Vismirnovite
Rruff sample: R070216
Ideal chemistry: Zn^2+^Sn^4+^(OH)_6_
Locality: Mushiston Deposit, Pendzhikent, Kaznok Valley, Zeravshan Range, Viloyati Sughd (Viloyati Khodzhent; Viloyati Leninabad), Tajikistan
Source: Michael Scott
Description: Yellow granular massive associated with malachite
Raman shift (cm-1)	intensity
157.376	0
160.268	20.9502
163.161	27.7566
166.054	62.6448
168.946	81.5066
171.839	125.363
174.732	147.765
177.625	123.852
180.517	112.607
183.41	65.4502
186.303	137.045
189.195	130.114
192.088	88.4658
194.981	78.3774
197.874	80.9351
200.766	52.4097
203.659	91.1189
206.552	78.6218
209.444	41.4419
212.337	4.06787
215.23	51.6912
218.122	18.9656
221.015	8.74023
223.908	5.66113
226.8	25.0845
229.693	20.6387
232.586	39.6775
235.479	15.0427
238.371	17.9338
241.264	26.4746
244.157	24.4485
247.049	58.8079
249.942	67.8166
252.835	12.3062
255.727	43.2434
258.62	44.8262
261.513	26.5991
264.406	11.729
267.298	31.823
270.191	35.7485
273.084	16.1611
275.976	61.6611
278.869	88.0447
281.762	35.054
284.655	36.706
287.547	70.9973
290.44	118.394
293.333	28.4841
296.225	51.4778
299.118	52.8313
302.011	51.7563
304.904	75.2681
307.796	39.7883
310.689	65.4307
313.582	4.09692
316.474	30.5837
319.367	21.3013
322.26	11.2056
325.152	45.1047
328.045	52.1604
330.938	19.125
333.83	26.8633
336.723	35.25
339.616	48.0544
342.509	12.5496
345.401	21.0837
348.294	4.19482
351.187	37.0872
354.079	28.2085
356.972	76.416
359.865	33.9326
362.757	37.7449
365.65	54.0117
368.543	86.0903
371.436	31.2747
374.328	21.2449
377.221	10.1838
380.114	10.7439
383.006	39.9075
385.899	4.42896
388.792	13.2424
391.685	49.238
394.577	13.5818
397.47	50.552
400.363	4.62964
403.255	23.2881
406.148	17.2686
409.041	22.6665
411.933	21.626
414.826	35.8167
417.719	62.4053
420.611	63.0867
423.504	87.3848
426.397	87.2139
429.29	50.2031
432.182	146.742
435.075	91.427
437.968	81.0957
440.86	112.931
443.753	104.868
446.646	113.033
449.538	114.199
452.431	121.599
455.324	85.4512
458.217	125.769
461.109	117.532
464.002	106.627
466.895	170.759
469.787	109.717
472.68	100.596
475.573	123.04
478.466	119.891
481.358	153.735
484.251	106.406
487.144	93.4585
490.036	88.7676
492.929	127.436
495.822	115.511
498.714	99.2275
501.607	93.1269
504.5	103.348
507.393	66.584
510.285	101.704
513.178	97.874
516.071	77.1045
518.963	110.347
521.856	85.1728
524.749	70.4878
527.641	25.9814
530.534	39.9453
533.427	4.86963
536.32	19.1982
539.212	9.77539
542.105	45.8267
544.998	35.5557
547.89	12.9365
550.783	20.6421
553.676	8.95605
556.568	12.085
559.461	2.53272
562.354	6.15039
565.247	15.6855
568.139	18.7031
571.032	19.8896
573.925	20.3364
576.817	27.6265
579.71	17.4199
582.603	95.9922
585.495	52.3125
588.388	56.2012
591.281	122.167
594.174	113.682
597.066	135.149
599.959	156.378
602.852	180.707
605.744	209.794
608.637	175.907
611.53	199.347
614.423	161.738
617.315	157.447
620.208	97.2578
623.101	80.1533
625.993	94.7476
628.886	97.4409
631.779	36.6182
634.671	29.4541
637.564	36.8921
640.457	35.771
643.35	47.7105
646.242	55.0269
649.135	38.0269
652.028	27.0947
654.92	18.023
657.813	11.7271
660.706	53.8872
663.598	12.2378
666.491	16.624
669.384	41.3721
672.277	41.4971
675.169	46.27
678.062	13.5869
680.955	11.7271
683.847	13.8379
686.74	57.6753
689.633	60.2866
692.525	48.2471
695.418	72.4141
698.311	33.9976
701.204	53.9853
704.096	51.6465
706.989	58.3472
709.882	68.8511
712.774	75.501
715.667	72.1123
718.56	66.8037
721.452	62.6602
724.345	84.6216
727.238	46.2056
730.131	48.48
733.023	98.1406
735.916	89.2144
738.809	63.7393
741.701	80.1231
744.594	45.2568
747.487	87.6602
750.38	34.3428
753.272	14.6167
756.165	20.7539
759.058	27.1421
761.95	0.068848
764.843	60.0117
767.736	13.3037
770.628	34.915
773.521	104.915
776.414	45.1489
779.307	1.48877
782.199	20.8896
785.092	34.0088
787.985	45.5864
790.877	62.4424
793.77	60.9805
796.663	19.2207
799.555	31.5278
802.448	3.13477
805.341	24.6943
808.234	22.6118
811.126	32.6665
814.019	56.6352
816.912	34.2231
819.804	58.7402
822.697	36.2661
825.59	12.9683
828.482	38.5908
831.375	84.1724
834.268	97.0469
837.16	94.5264
840.053	58.228
842.946	75
845.839	65.9512
848.731	91.7085
851.624	70.585
854.517	61.4741
857.409	54.9697
860.302	71.4717
863.195	67.3023
866.087	15.2144
868.98	52.6714
871.873	102.413
874.766	27.3818
877.658	1.24023
880.551	57.8965
883.444	4.81299
886.337	60.2539
889.229	2.45508
892.122	13.4736
895.015	51.1148
897.907	69.6885
900.8	48.8057
903.693	45.8364
906.585	49.6777
909.478	28.8076
912.371	23.9766
915.264	66.2319
918.156	42.3594
921.049	65.4932
923.942	29.0264
926.834	55.6489
929.727	32.1162
932.62	77.5186
935.512	35.6143
938.405	15.4731
941.298	26.6104
944.191	43.1343
947.083	49.0752
949.976	48.3359
952.869	24.6909
955.761	18.8042
958.654	60.3223
961.547	29.7656
964.439	23.5161
967.332	54.6289
970.225	69.5591
973.117	55.1846
976.01	43.9761
978.903	16.7026
981.796	0.549805
984.688	32.8867
987.581	95.8779
990.474	23.1645
993.366	3.98486
996.259	38.2788
999.152	50.5185
1002.04	17.2183
1004.94	26.7461
1007.83	37.418
1010.72	2.30273
1013.62	29.4976
1016.51	32.2769
1019.4	30.855
1022.29	16.7285
1025.19	30.4653
1028.08	62.0869
1030.97	30.3457
1033.86	26.9341
1036.76	44.8052
1039.65	19.6577
1042.54	43.0469
1045.43	26.9653
1048.33	93.0737
1051.22	31.6509
1054.11	28.3369
1057.01	96.6011
1059.9	76.6621
1062.79	7.26416
1065.68	25.2944
1068.58	25.583
1071.47	19.4336
1074.36	63.0532
1077.26	15.7261
1080.15	63.3667
1083.04	0.396484
1085.93	21.7764
1088.83	3.17773
1091.72	110.809
1094.61	42.3242
1097.5	24.0386
1100.4	34.7251
1103.29	28.7549
1106.18	41.6162
1109.07	71.2329
1111.97	40.3711
1114.86	4.12549
1117.75	76.7539
1120.64	19.5776
1123.54	66.8472
1126.43	31.8477
1129.32	65.3662
1132.22	62.6152
1135.11	46.9556
1138	84.1489
1140.89	65.7993
1143.79	120.164
1146.68	47.3491
1149.57	91.8467
1152.46	95.8999
1155.36	101.038
1158.25	75.2349
1161.14	138.877
1164.04	99.7568
1166.93	50.2178
1169.82	152.609
1172.71	66.9258
1175.61	63.1562
1178.5	109.971
1181.39	96.6304
1184.29	106.457
1187.18	87.6826
1190.07	31.7041
1192.96	91.6338
1195.86	49.6797
1198.75	36.3208
1201.64	58.123
1204.53	6.36426
1207.43	70.2271
1210.32	2.59863
1213.21	73.5674
1216.1	37.0772
1219	78.978
1221.89	109.613
1224.78	73.0811
1227.67	39.0864
1230.57	27.1186
1233.46	33.3672
1236.35	44.9409
1239.25	28.7769
1242.14	107.665
1245.03	30.1118
1247.92	17.1797
1250.82	47.0605
1253.71	61.7515
1256.6	81.5156
1259.49	80.582
1262.39	26.0479
1265.28	22.8032
1268.17	86.0371
1271.07	93.5571
1273.96	62.0288
1276.85	28.3418
1279.74	73.8413
1282.64	60.5425
1285.53	52.794
1288.42	40.2891
