Measurement: Raman, 785 nm, unoriented, Raman Data Processed
Mineral: Vismirnovite
Rruff sample: R070216
Ideal chemistry: Zn^2+^Sn^4+^(OH)_6_
Locality: Mushiston Deposit, Pendzhikent, Kaznok Valley, Zeravshan Range, Viloyati Sughd (Viloyati Khodzhent; Viloyati Leninabad), Tajikistan
Source: Michael Scott
Description: Yellow granular massive associated with malachite
Raman shift (cm-1)	intensity
168.749	0
171.642	8.36884
174.534	16.457
177.427	25.6817
180.32	28.4952
183.212	22.3541
186.105	35.6583
188.998	45.7064
191.891	64.8158
194.783	15.8921
197.676	34.757
200.569	20.0408
203.461	26.6624
206.354	27.2273
209.247	32.9492
212.139	13.6525
215.032	21.955
217.925	16.8902
220.818	12.2272
223.71	7.91193
226.603	8.34302
229.496	8.88757
232.388	10.1136
235.281	11.2808
238.174	12.2759
241.066	12.8924
243.959	45.6913
246.852	21.1365
249.745	23.665
252.637	16.674
255.53	34.4894
258.423	1.24103
261.315	22.3635
264.208	11.1478
267.101	29.353
269.993	18.835
272.886	22.2608
275.779	11.9485
278.672	32.3356
281.564	21.9024
284.457	40.9722
287.35	27.7289
290.242	14.6987
293.135	39.8129
296.028	37.8842
298.921	27.7712
301.813	11.4116
304.706	29.1181
307.599	49.3984
310.491	21.8126
313.384	38.1715
316.277	22.6897
319.169	16.4703
322.062	26.6116
324.955	3.17743
327.847	35.9175
330.74	0.940979
333.633	10.6018
336.526	26.6464
339.418	13.9516
342.311	10.5104
345.204	0.12793
348.096	46.0718
350.989	20.0344
353.882	1.89691
356.774	2.9331
359.667	3.80353
362.56	3.92932
365.452	18.7021
368.345	9.84521
371.238	3.84106
374.131	18.322
377.023	7.41064
379.916	10.6771
382.809	18.754
385.701	14.673
388.594	7.83655
391.487	35.3038
394.38	1.57251
397.272	8.47748
400.165	10.8778
403.058	6.40881
405.95	3.66663
408.843	3.60382
411.736	20.8062
414.628	16.4575
417.521	28.0519
420.414	5.74335
423.307	7.31604
426.199	23.4734
429.092	30.109
431.985	28.308
434.877	23.571
437.77	44.2877
440.663	11.1425
443.555	26.7769
446.448	35.077
449.341	26.8019
452.234	24.1017
455.126	34.2518
458.019	28.4168
460.912	36.8608
463.804	36.0936
466.697	24.7356
469.59	56.4379
472.483	35.5361
475.375	42.4207
478.268	50.8218
481.161	52.0196
484.053	25.5881
486.946	24.087
489.839	48.8585
492.731	31.64
495.624	11.1645
498.517	53.29
501.409	25.2194
504.302	44.5027
507.195	39.8865
510.088	38.7899
512.98	30.8292
515.873	28.1427
518.766	37.1229
521.658	24.0724
524.551	5.25958
527.444	15.7455
530.337	28.8889
533.229	44.0403
536.122	22.5499
539.015	5.01044
541.907	23.4105
544.8	1.73175
547.693	5.27508
550.585	26.2673
553.478	1.95019
556.371	14.7812
559.263	21.4635
562.156	9.44318
565.049	35.6434
567.942	28.5274
570.834	5.01361
573.727	5.01764
576.62	27.9205
579.512	18.575
582.405	25.0759
585.298	51.96
588.19	43.8812
591.083	42.4854
593.976	47.4186
596.869	48.2371
599.761	69.0531
602.654	61.0935
605.547	87.3364
608.439	85.2647
611.332	94.2087
614.225	83.6667
617.117	45.9409
620.01	58.9091
622.903	44.1266
625.795	34.0413
628.688	25.4572
631.581	43.0096
634.474	40.8748
637.366	18.8958
640.259	30.1035
643.152	2.6528
646.044	12.9881
648.937	15.7332
651.83	13.2319
654.722	12.694
657.615	19.825
660.508	18.2943
663.401	15.07
666.293	32.9741
669.186	17.1462
672.079	6.45514
674.971	7.81903
677.864	15.9947
680.757	25.5858
683.649	8.92545
686.542	22.3146
689.435	27.223
692.328	18.0102
695.22	15.3064
698.113	23.3806
701.006	15.6005
703.898	8.96005
706.791	12.756
709.684	17.0707
712.577	11.6254
715.469	3.48331
718.362	32.1204
721.255	31.3207
724.147	8.97211
727.04	30.361
729.933	40.4122
732.825	21.7346
735.718	16.0348
738.611	12.3319
741.504	1.78265
744.396	7.89822
747.289	44.5635
750.182	25.1685
753.074	22.1403
755.967	20.5034
758.86	3.4902
761.752	12.2469
764.645	13.2525
767.538	14.8918
770.431	18.3104
773.323	21.5373
776.216	8.59344
779.109	19.7401
782.001	18.6806
784.894	9.72443
787.787	12.2785
790.679	33.4812
793.572	25.3117
796.465	9.87125
799.357	3.11938
802.25	14.8161
805.143	7.02536
808.036	17.5022
810.928	20.7533
813.821	13.8552
816.714	29.1463
819.606	35.3469
822.499	13.4827
825.392	10.081
828.284	31.0639
831.177	34.5869
834.07	24.0847
836.963	28.5405
839.855	21.9818
842.748	28.7068
845.641	27.7239
848.533	7.92191
851.426	14.8034
854.319	15.067
857.212	27.5096
860.104	30.7596
862.997	10.2707
865.89	17.3543
868.782	6.30942
871.675	16.6438
874.568	10.5022
877.46	17.008
880.353	24.6956
883.246	15.4655
886.139	31.1188
889.031	7.39783
891.924	0.021301
894.817	6.02786
897.709	14.3986
900.602	16.9096
903.495	15.7236
906.388	2.06009
909.28	3.97867
912.173	8.46622
915.066	5.60333
917.958	2.41455
920.851	13.8661
923.744	8.40567
926.636	3.77972
929.529	17.3279
932.422	27.8237
935.314	36.5995
938.207	6.01767
941.1	21.9381
943.993	19.5193
946.885	11.7729
949.778	4.17892
952.671	12.0383
955.563	26.5407
958.456	15.4336
961.349	8.15295
964.241	38.8583
967.134	18.8204
970.027	8.83679
972.92	31.9388
975.812	4.43536
978.705	11.9816
981.598	21.3789
984.49	22.5339
987.383	15.6242
990.276	16.8429
993.168	25.8119
996.061	1.18359
998.954	20.3352
1001.85	8.49646
1004.74	15.593
1007.63	20.0561
1010.52	33.9805
1013.42	27.932
1016.31	32.9411
1019.2	13.6267
1022.1	15.5178
1024.99	29.2564
1027.88	34.3937
1030.77	24.025
1033.67	27.3407
1036.56	23.5142
1039.45	16.1826
1042.34	8.4975
1045.24	26.3426
1048.13	9.01788
1051.02	5.7887
1053.91	7.00354
1056.81	27.1014
1059.7	23.1092
1062.59	32.6621
1065.49	24.5855
1068.38	2.87073
1071.27	29.4169
1074.16	26.96
1077.06	28.3217
1079.95	35.666
1082.84	10.3434
1085.73	41.9174
1088.63	28.1538
1091.52	20.716
1094.41	44.5483
1097.31	13.8129
1100.2	22.2565
1103.09	48.0814
1105.98	44.7071
1108.88	23.9584
1111.77	8.6344
1114.66	28.4464
1117.56	2.78644
1120.45	14.3994
1123.34	45.786
1126.23	46.7468
1129.12	25.8895
1132.02	19.9787
1134.91	14.8115
1137.8	32.1885
1140.7	30.7595
1143.59	21.6096
1146.48	13.9864
1149.37	13.6496
1152.27	17.6538
1155.16	31.6479
1158.05	49.1632
1160.94	16.4603
1163.84	6.67425
1166.73	1.22711
1169.62	20.2532
1172.52	37.4111
1175.41	31.1281
1178.3	28.6854
1181.19	12.4738
1184.09	9.05823
1186.98	4.26093
1189.87	33.7657
1192.77	0.136841
1195.66	29.1202
1198.55	20.0418
1201.44	50.3917
1204.34	10.1562
1207.23	20.6601
1210.12	8.79181
1213.01	15.4329
1215.91	21.0091
1218.8	31.07
