Measurement: Raman, 532 nm, unoriented, Raman Data Processed
Mineral: Voglite
Rruff sample: R050663
Ideal chemistry: Ca_2_Cu^2+^(U^6+^O_2_)(CO_3_)_4_6H_2_O
Locality: White Canyon #1 mine, Frey Point, San Juan County, Utah, USA
Source: University of Arizona Mineral Museum
Description: Green granular aggregate
Raman shift (cm-1)	intensity
156.136	0
159.029	92.805
161.922	293.84
164.814	507.73
167.707	446.414
170.6	308.926
173.492	167.363
176.385	144.746
179.278	226.906
182.171	489.598
185.063	434.555
187.956	554.367
190.849	529.133
193.741	332.301
196.634	195.574
199.527	218.703
202.419	369.059
205.312	530.332
208.205	691.48
211.098	718.691
213.99	668.77
216.883	762.078
219.776	972.645
222.668	986.367
225.561	1215.63
228.454	1299.93
231.346	1356.14
234.239	1376.36
237.132	1311.77
240.025	1414.63
242.917	1442.17
245.81	1460.27
248.703	1268.23
251.595	996.352
254.488	592
257.381	519.285
260.273	413.059
263.166	583.672
266.059	571.117
268.952	460.266
271.844	295.477
274.737	266.098
277.63	150.91
280.522	271.727
283.415	340.066
286.308	295.055
289.201	139.848
292.093	46.867
294.986	77.102
297.879	114.594
300.771	50.324
303.664	167.336
306.557	334.352
309.449	361.246
312.342	288.215
315.235	183.867
318.128	37.848
321.02	154.527
323.913	194.098
326.806	369.199
329.698	199.98
332.591	226.359
335.484	160.859
338.376	159.504
341.269	312.832
344.162	137.848
347.055	48.871
349.947	112.328
352.84	291.754
355.733	259.906
358.625	116.266
361.518	25.391
364.411	58.344
367.303	54.504
370.196	10.207
373.089	158.816
375.982	78.855
378.874	198.324
381.767	101.203
384.66	118.59
387.552	254.402
390.445	337.805
393.338	188.543
396.23	311.258
399.123	73.277
402.016	167.305
404.909	202.289
407.801	227.348
410.694	183.305
413.587	229.367
416.479	390.258
419.372	384.426
422.265	215.441
425.158	299.035
428.05	140.676
430.943	163.559
433.836	31.129
436.728	241.133
439.621	217.848
442.514	193.496
445.406	324.473
448.299	181.875
451.192	192.02
454.085	203.109
456.977	213.086
459.87	223.93
462.763	96.742
465.655	14.383
468.548	186.379
471.441	187.773
474.333	346.711
477.226	105.441
480.119	149.371
483.012	202.52
485.904	263.75
488.797	223.188
491.69	193.531
494.582	1.637
497.475	25.246
500.368	92.355
503.26	26.242
506.153	90.145
509.046	148.684
511.939	126.586
514.831	140.887
517.724	325.996
520.617	307.039
523.509	731.684
526.402	349.184
529.295	417.801
532.187	171.598
535.08	78.195
537.973	10.012
540.865	41.875
543.758	189.074
546.651	412.949
549.544	276.02
552.436	246.336
555.329	39.121
558.222	55.07
561.114	236.496
564.007	273.145
566.9	218.141
569.792	352.816
572.685	307.348
575.578	162.801
578.471	69.535
581.363	64.512
584.256	222.336
587.149	72.941
590.042	161.531
592.934	134.633
595.827	42.828
598.72	99.145
601.612	32.074
604.505	208.777
607.398	327.055
610.29	238.426
613.183	411.848
616.076	277.449
618.969	241.477
621.861	178.922
624.754	346.402
627.647	334.91
630.539	185.367
633.432	241.438
636.325	67.996
639.217	51.027
642.11	45.246
645.003	11.359
647.896	43.039
650.788	368.195
653.681	344.598
656.574	406.129
659.466	294.816
662.359	128.938
665.252	106.23
668.144	251.977
671.037	322.699
673.93	354.301
676.823	165.707
679.715	237.738
682.608	178.938
685.501	458.605
688.393	336.586
691.286	414.234
694.179	341.5
697.071	508.254
699.964	327.176
702.857	266.195
705.75	126.754
708.642	131.145
711.535	54.203
714.428	110.895
717.32	65.836
720.213	317.953
723.106	400.383
725.998	621.852
728.891	841.676
731.784	1029.89
734.677	1346.11
737.569	1613.76
740.462	1809.34
743.355	2010.84
746.247	2179.66
749.14	2260.49
752.033	2098.53
754.925	2011.27
757.818	1660.27
760.711	1194.3
763.604	437.277
766.496	412.816
769.389	267.547
772.282	207.262
775.174	161.719
778.067	101.918
780.96	137.504
783.852	266.32
786.745	392.52
789.638	716.422
792.531	1146.47
795.423	1575.84
798.316	2090.65
801.209	2879.67
804.101	3980.71
806.994	5560.92
809.887	7460.55
812.779	10144.9
815.672	12825.5
818.565	15222.5
821.458	16067.6
824.35	15379.5
827.243	14379.3
830.136	13476.7
833.028	11886.7
835.921	10186.7
838.814	8587.21
841.706	7010.24
844.599	5551.48
847.492	4208.58
850.385	2891
853.277	1753.86
856.17	970.59
859.063	514.969
861.955	357.164
864.848	229.566
867.741	57.852
870.633	106.746
873.526	44.441
876.419	97.512
879.312	18.367
882.204	47.039
885.097	55.676
887.99	258.637
890.882	252.25
893.775	496.457
896.668	587.316
899.56	508.773
902.453	224.25
905.346	145.348
908.239	175.77
911.131	234.012
914.024	116.578
916.917	85.391
919.81	116.711
922.702	244.598
925.595	579.945
928.488	436.773
931.38	419.496
934.273	347.078
937.166	161.207
940.058	205.793
942.951	339.312
945.844	71.156
948.737	85.758
951.629	91.746
954.522	28.164
957.415	32.57
960.307	154.562
963.2	102.746
966.093	122.75
968.985	84.566
971.878	134.133
974.771	87.77
977.664	255.488
980.556	247.41
983.449	177.574
986.342	135.871
989.234	8.875
992.127	83.996
995.02	17.82
997.912	23
1000.8	161.262
1003.7	333.137
1006.59	207.734
1009.48	243.797
1012.38	167.754
1015.27	94.734
1018.16	141.234
1021.05	59.488
1023.95	112.453
1026.84	341.148
1029.73	11.453
1032.62	0.637
1035.52	279.184
1038.41	267.496
1041.3	313.055
1044.2	276.93
1047.09	221.402
1049.98	357
1052.87	481.688
1055.77	731.387
1058.66	964.199
1061.55	950.277
1064.44	1112.1
1067.34	1397.58
1070.23	1791.66
1073.12	2085.39
1076.02	2339.35
1078.91	2360.09
1081.8	2710.75
1084.69	2986.05
1087.59	2959.11
1090.48	2310.1
1093.37	2141.45
1096.26	1615.09
1099.16	1366.71
1102.05	1002.95
1104.94	777.891
1107.84	588.371
1110.73	352.121
1113.62	237.746
1116.51	221.375
1119.41	115.434
1122.3	59.445
1125.19	54.277
1128.08	191.656
1130.98	208.285
1133.87	243.348
1136.76	171.465
1139.65	83.043
1142.55	182.082
1145.44	75.539
1148.33	55.371
1151.23	110.332
1154.12	81.191
1157.01	129.629
1159.9	278.879
1162.8	131.145
1165.69	41.621
1168.58	59.391
1171.47	89.152
1174.37	248.312
1177.26	128.422
1180.15	266.344
1183.05	307.066
1185.94	258.613
1188.83	227.234
1191.72	171.984
1194.62	183.688
1197.51	180.988
1200.4	53.062
1203.29	208.422
1206.19	7.152
1209.08	288.797
1211.97	266.125
1214.87	244.219
1217.76	277.145
1220.65	100.816
1223.54	78.641
1226.44	148.359
1229.33	78.156
1232.22	310.285
1235.11	259.684
1238.01	364.23
1240.9	254.883
1243.79	183.312
1246.68	285.625
1249.58	365.496
1252.47	250.965
1255.36	248.004
1258.26	303.602
1261.15	254.395
1264.04	1.719
1266.93	3.504
1269.83	312.035
1272.72	348.777
1275.61	460.34
1278.51	278.367
1281.4	196.422
1284.29	94.195
1287.18	18.871
1290.08	0.164
