Measurement: Raman, 780 nm, unoriented, Raman Data Processed
Mineral: Volborthite
Rruff sample: R120063
Ideal chemistry: Cu^2+^_3_V^5+^_2_O_7_(OH)_2_2H_2_O
Locality: Milpillas mine, Municipio de Santa Cruz, Sonora, Mexico
Source: Evan Jones
Description: Parallel aggregate of dark green tabular crystals associated with malachite
Raman shift (cm-1)	intensity
116.192	0
119.566	1.83205
122.941	3.66045
126.316	1.45136
129.691	1.15927
133.066	0.160545
136.44	3.33025
139.815	3.4969
143.19	1.44344
146.565	1.17212
149.94	1.11731
153.315	2.60853
156.689	2.36548
160.064	5.23957
163.439	7.74191
166.814	9.60371
170.189	11.2493
173.563	10.5178
176.938	7.18645
180.313	5.77264
183.688	4.93742
187.063	2.8171
190.437	0.614731
193.812	0.27367
197.187	0.569782
200.562	0.356773
203.937	1.34344
207.311	1.83694
210.686	0.900349
214.061	0.986885
217.436	0.895351
220.811	2.36729
224.186	1.42696
227.56	1.26327
230.935	1.45063
234.31	2.36971
237.685	2.86836
241.06	4.25896
244.435	4.25703
247.809	3.14174
251.184	3.79551
254.559	1.87886
257.934	2.78002
261.309	4.25988
264.683	2.22981
268.058	2.63909
271.433	4.65885
274.808	3.22013
278.183	4.15976
281.558	4.49696
284.932	1.97108
288.307	2.28469
291.682	2.05849
295.057	0.250542
298.432	0.295998
301.806	0.484535
305.181	0.316055
308.556	0.262253
311.931	1.561
315.306	2.04607
318.68	2.17694
322.055	4.63888
325.43	5.26149
328.805	6.63098
332.18	6.8969
335.555	5.23225
338.929	6.02305
342.304	4.9169
345.679	3.97757
349.054	5.42697
352.429	5.30336
355.803	3.05707
359.178	2.81418
362.553	3.54957
365.928	4.22682
369.303	3.55785
372.678	6.31076
376.052	7.02273
379.427	8.56569
382.802	8.73085
386.177	8.56511
389.552	8.11144
392.926	5.95846
396.301	3.23255
399.676	2.78523
403.051	1.65744
406.426	0.842827
409.8	2.05857
413.175	1.82129
416.55	1.13025
419.925	1.54446
423.3	0.690674
426.675	0.424496
430.049	0.395817
433.424	0.992855
436.799	1.38747
440.174	0.033123
443.549	0.30756
446.923	1.4234
450.298	0.234867
453.673	1.35916
457.048	1.00469
460.423	1.37047
463.798	1.90902
467.172	0.303528
470.547	0.369091
473.922	0.598942
477.297	1.00269
480.672	0.094826
484.046	0.731354
487.421	0.49062
490.796	0.657578
494.171	0.323652
497.546	0.204468
500.921	0.708464
504.295	1.03338
507.67	3.67102
511.045	1.25565
514.42	3.1368
517.795	4.27026
521.169	2.99314
524.544	4.11116
527.919	4.68474
531.294	4.85977
534.669	5.52208
538.044	3.02885
541.418	4.6859
544.793	5.62459
548.168	1.14589
551.543	3.42955
554.918	1.74139
558.293	1.21199
561.667	1.53621
565.042	0.595327
568.417	1.53684
571.792	1.21448
575.167	0.33016
578.541	0.986057
581.916	0.92415
585.291	1.29139
588.666	2.33855
592.041	1.80451
595.415	0.446905
598.79	0.289194
602.165	0.970592
605.54	1.35398
608.915	1.45894
612.29	0.232948
615.664	0.45204
619.039	0.139549
622.414	0.038023
625.789	1.65067
629.164	0.911903
632.538	2.06534
635.913	0.74251
639.288	0.09734
642.663	1.14695
646.038	1.15781
649.413	0.871088
652.787	1.91096
656.162	1.84985
659.537	1.19149
662.912	2.23524
666.287	1.51471
669.661	1.53708
673.036	2.01705
676.411	1.0064
679.786	0.752291
683.161	2.33339
686.535	1.65922
689.91	2.21893
693.285	2.0853
696.66	2.065
700.035	0.324015
703.41	0.122595
706.784	0.570667
710.159	0.296736
713.534	0.361673
716.909	0.415184
720.284	1.73095
723.659	1.76052
727.033	3.43413
730.408	3.71407
733.783	7.98231
737.158	11.5817
740.533	12.3202
743.907	14.9465
747.282	13.8694
750.657	11.2565
754.032	9.29057
757.407	6.11671
760.782	4.14183
764.156	1.57148
767.531	4.0674
770.906	2.74637
774.281	2.87204
777.656	2.22347
781.03	2.48364
784.405	3.27027
787.78	3.23201
791.155	4.39793
794.53	6.55992
797.904	7.92216
801.279	7.51384
804.654	8.96855
808.029	8.36123
811.404	4.93594
814.779	4.23921
818.153	2.77358
821.528	1.7566
824.903	0.659676
828.278	0.428288
831.653	0.294571
835.028	0.281811
838.402	1.1808
841.777	1.48778
845.152	0.852783
848.527	3.01779
851.902	3.83541
855.276	3.46183
858.651	2.96915
862.026	0.770538
865.401	0.860275
868.776	1.06701
872.15	2.56246
875.525	3.86916
878.9	5.41789
882.275	9.21309
885.65	14.9657
889.024	23.5287
892.399	31.6888
895.774	46.5929
899.149	57.3172
902.524	68.6952
905.899	60.6329
909.273	48.1205
912.648	34.7644
916.023	24.5464
919.398	14.5748
922.773	10.8511
926.148	9.0639
929.522	4.56119
932.897	1.99325
936.272	1.36921
939.647	0.790176
943.022	0.640476
946.396	0.948978
949.771	2.3942
953.146	2.2551
956.521	0.970842
959.896	0.435408
963.27	0.8332
966.645	0.053917
970.02	0.098692
973.395	0.752508
976.77	0.365177
980.145	0.48064
983.519	1.12565
986.894	1.25793
990.269	0.070562
993.644	0.590467
997.019	0.421044
1000.39	1.06798
1003.77	1.27682
1007.14	1.22673
1010.52	1.85743
1013.89	3.1316
1017.27	1.31244
1020.64	3.46788
1024.02	2.30942
1027.39	2.8186
1030.77	1.37647
1034.14	2.23302
1037.52	1.62639
1040.89	2.89443
1044.27	1.83256
1047.64	1.55059
1051.02	1.08466
1054.39	2.53053
1057.77	1.89462
1061.14	1.6424
1064.52	3.12939
1067.89	1.47463
1071.27	2.1275
1074.64	2.2169
1078.01	0.999296
1081.39	1.88527
1084.76	1.46989
1088.14	2.4207
1091.51	2.05664
1094.89	0.998509
1098.26	0.453921
1101.64	2.92812
1105.01	0.148701
1108.39	1.43747
1111.76	0.193716
1115.14	0.793259
1118.51	2.42745
1121.89	1.10025
1125.26	1.44531
1128.64	1.89231
1132.01	0.255155
1135.39	0.170299
1138.76	0.449645
1142.14	2.99013
1145.51	0.995464
1148.88	3.48027
1152.26	1.86804
1155.63	1.96907
1159.01	2.92178
1162.38	3.65171
1165.76	3.35075
1169.13	1.84385
1172.51	1.51702
1175.88	2.66442
1179.26	1.99669
1182.63	2.49351
1186.01	0.569531
1189.38	1.94477
1192.76	3.16196
1196.13	0.23793
1199.51	0.218376
1202.88	2.80466
1206.26	0.395181
1209.63	2.45384
1213.01	1.90455
1216.38	0.834113
1219.76	2.33496
1223.13	2.33009
1226.51	1.67459
1229.88	2.98319
1233.26	0.62747
1236.63	3.69399
1240.01	2.25757
1243.38	2.69822
1246.76	2.50915
1250.13	2.18667
1253.51	1.20637
1256.88	3.17471
1260.25	1.50026
1263.63	1.4525
1267	1.49148
1270.38	2.86823
1273.75	3.15957
1277.13	0.522844
1280.5	1.59947
1283.88	1.37266
