Measurement: Raman, 532 nm, unoriented, Raman Data Processed
Mineral: Volkovskite
Rruff sample: R110151
Ideal chemistry: KCa_4_[B_5_O_8_(OH)]_4_[B(OH)_3_]_2_Cl4H_2_O
Locality: Potash Corporation of Saskatchewan mine, Penobsquis, Kings County, New Brunswick, Canada
Source: Donald M Doell and Brian Roulston
Description: Pale red platy crystals, extracted by dissolving the matrix of sylvite/halite, associated with strontioginorite R110149, howlite R110150, ruitenbergite R110152, congolite R110153, and hilgardite
Raman shift (cm-1)	intensity
162.328	0
165.22	0.093224
168.113	1.64004
171.006	7.71493
173.898	11.0073
176.791	9.60796
179.684	15.1832
182.577	15.3183
185.469	21.8394
188.362	22.69
191.255	23.0316
194.147	16.3861
197.04	16.7872
199.933	18.9708
202.825	19.88
205.718	26.7122
208.611	18.3254
211.504	24.0399
214.396	18.7833
217.289	14.2158
220.182	18.0801
223.074	13.9216
225.967	15.6163
228.86	19.0243
231.752	5.82285
234.645	7.82529
237.538	3.24822
240.43	6.86592
243.323	10.6761
246.216	10.412
249.109	6.98192
252.001	3.08344
254.894	3.43693
257.787	2.42486
260.679	2.33643
263.572	3.25436
266.465	3.19958
269.358	1.59115
272.25	2.84401
275.143	1.81525
278.036	1.91888
280.928	0.444626
283.821	2.71264
286.714	4.33918
289.606	6.62295
292.499	10.8579
295.392	15.4287
298.284	15.3214
301.177	30.8859
304.07	31.4191
306.963	24.9191
309.855	11.8595
312.748	2.71317
315.641	1.19419
318.533	0.295509
321.426	0.204216
324.319	1.50678
327.212	0.200325
330.104	2.18394
332.997	0.129005
335.89	7.04116
338.782	2.10838
341.675	5.93017
344.568	8.18676
347.46	5.7954
350.353	7.48869
353.246	11.1494
356.139	12.1836
359.031	18.2173
361.924	24.5385
364.817	31.8319
367.709	33.5591
370.602	22.1342
373.495	15.6152
376.387	5.98898
379.28	3.03099
382.173	1.16555
385.065	4.14707
387.958	1.81149
390.851	5.11397
393.744	2.52738
396.636	5.98692
399.529	6.4483
402.422	5.86173
405.314	12.6936
408.207	13.2013
411.1	14.9801
413.993	15.5458
416.885	8.44157
419.778	5.89341
422.671	0.751564
425.563	0.11158
428.456	2.18623
431.349	1.63596
434.241	2.90326
437.134	0.05217
440.027	0.644524
442.92	4.61498
445.812	3.56125
448.705	5.29603
451.598	8.02744
454.49	11.3228
457.383	19.3963
460.276	29.5499
463.168	37.5805
466.061	33.7281
468.954	33.4308
471.846	40.2277
474.739	49.4897
477.632	53.7619
480.525	56.4285
483.417	41.7501
486.31	22.8371
489.203	16.5572
492.095	15.9541
494.988	18.0443
497.881	20.6811
500.774	15.4214
503.666	6.89338
506.559	6.08464
509.452	0.687134
512.344	2.97367
515.237	3.35933
518.13	3.05806
521.022	0.339706
523.915	1.53551
526.808	1.24934
529.701	0.391609
532.593	0.096947
535.486	1.40532
538.379	0.41153
541.271	1.31119
544.164	2.57334
547.057	1.46302
549.949	2.92424
552.842	2.16538
555.735	1.22997
558.628	3.76064
561.52	5.53526
564.413	8.17326
567.306	13.7499
570.198	17.7869
573.091	21.188
575.984	20.1521
578.876	12.3704
581.769	7.45306
584.662	1.99452
587.554	4.96957
590.447	5.84743
593.34	4.96143
596.232	6.77959
599.125	12.7605
602.018	18.1137
604.911	24.9972
607.803	31.3662
610.696	42.9113
613.589	51.7403
616.481	26.6839
619.374	17.0118
622.267	10.0887
625.159	6.20196
628.052	2.19482
630.945	4.89732
633.838	7.82011
636.73	10.2975
639.623	13.0627
642.516	6.84714
645.408	6.38671
648.301	2.65277
651.194	5.54201
654.087	6.71439
656.979	8.10862
659.872	4.61687
662.765	3.56766
665.657	1.92908
668.55	0.851662
671.443	0.004913
674.335	2.37931
677.228	1.21237
680.121	2.94193
683.014	3.16415
685.906	0.859169
688.799	1.39238
691.692	0.986832
694.584	0.701172
697.477	1.10498
700.37	2.95069
703.263	4.35308
706.155	5.02177
709.048	4.45299
711.941	2.16638
714.833	4.22407
717.726	6.81678
720.619	0.979759
723.511	2.60891
726.404	1.82024
729.297	2.05934
732.189	2.07588
735.082	0.861275
737.975	0.190742
740.868	1.79936
743.76	2.91274
746.653	7.23342
749.546	11.2925
752.438	24.7045
755.331	33.7769
758.224	49.2835
761.116	59.0953
764.009	56.7987
766.902	47.6275
769.795	34.9992
772.687	24.0592
775.58	12.195
778.473	6.88002
781.365	4.7683
784.258	1.57417
787.151	0.973175
790.043	0.01133
792.936	1.17129
795.829	0.849686
798.722	0.67614
801.614	1.619
804.507	1.32919
807.4	8.66629
810.292	7.45293
813.185	11.9751
816.078	14.3652
818.971	7.41859
821.863	3.19109
824.756	4.4651
827.649	2.61034
830.541	7.58393
833.434	12.2873
836.327	12.9481
839.219	22.3235
842.112	23.4354
845.005	23.5241
847.898	16.5118
850.79	8.17758
853.683	6.34377
856.576	3.40872
859.468	4.35662
862.361	7.95384
865.254	8.53816
868.146	10.7897
871.039	12.4113
873.932	8.62896
876.824	8.26251
879.717	9.23196
882.61	10.0819
885.503	15.5585
888.395	15.2659
891.288	17.8835
894.181	23.3425
897.073	26.0918
899.966	27.9358
902.859	24.0954
905.751	14.4923
908.644	8.65334
911.537	5.20471
914.43	2.98223
917.322	1.69986
920.215	1.13491
923.108	1.30616
926	0.979294
928.893	4.45583
931.786	5.88087
934.678	11.4996
937.571	7.30621
940.464	6.00636
943.357	8.66703
946.249	12.7232
949.142	13.9583
952.035	15.2748
954.927	14.1221
957.82	11.3816
960.713	6.89853
963.606	5.78815
966.498	6.51203
969.391	5.63776
972.284	3.74044
975.176	6.76077
978.069	6.47051
980.962	7.88213
983.854	4.44934
986.747	0.856941
989.64	1.02161
992.533	0.764061
995.425	1.13021
998.318	1.04676
1001.21	0.85955
1004.1	4.98257
1007	1.17902
1009.89	3.195
1012.78	4.40517
1015.67	0.753708
1018.57	1.31972
1021.46	2.03664
1024.35	1.10938
1027.24	1.12297
1030.14	1.43972
1033.03	1.96865
1035.92	0.60096
1038.82	4.03838
1041.71	2.81743
1044.6	0.329292
1047.49	1.65254
1050.39	0.76757
1053.28	4.16215
1056.17	6.04436
1059.07	0.622841
1061.96	6.76867
1064.85	2.26065
1067.74	2.82896
1070.63	4.38094
1073.53	6.50105
1076.42	8.38761
1079.31	5.98688
1082.21	3.39368
1085.1	3.8038
1087.99	2.06683
1090.88	4.27297
1093.78	6.00769
1096.67	3.40442
1099.56	3.28316
1102.45	7.74728
1105.35	2.14931
1108.24	5.27806
1111.13	4.1752
1114.03	5.93879
1116.92	3.85784
1119.81	0.336098
1122.7	2.97668
1125.6	2.42584
1128.49	2.21385
1131.38	0.063736
1134.28	2.9819
1137.17	0.061157
1140.06	3.3864
1142.95	2.71734
1145.85	2.45448
1148.74	2.93954
1151.63	4.11074
1154.52	2.56803
1157.42	0.567993
1160.31	5.64317
1163.2	2.95653
1166.09	2.7448
1168.99	2.61034
1171.88	2.49201
1174.77	0.292564
1177.66	4.18524
1180.56	2.37946
1183.45	3.87123
1186.34	5.19895
1189.24	4.40091
1192.13	2.99884
1195.02	2.39231
1197.91	0.991463
1200.81	1.4618
1203.7	1.15049
1206.59	5.25122
1209.48	1.46134
1212.38	2.66413
1215.27	5.21786
1218.16	2.79015
1221.06	1.00205
1223.95	1.90001
1226.84	6.17574
1229.73	3.43517
1232.63	1.47557
1235.52	3.81171
1238.41	3.81509
1241.31	5.64526
1244.2	5.98138
1247.09	6.19247
1249.98	7.02351
1252.88	5.32528
1255.77	6.15591
1258.66	2.30404
1261.55	5.83819
1264.45	7.10141
1267.34	5.33486
1270.23	2.93591
1273.12	2.2851
1276.02	4.19041
1278.91	4.93739
1281.8	1.9178
1284.69	3.76183
1287.59	3.17836
1290.48	1.34831
1293.37	2.50134
1296.27	0.872162
1299.16	2.15448
1302.05	1.0274
