Measurement: Raman, 780 nm, unoriented, Raman Data Processed
Mineral: Volkovskite
Rruff sample: R110151
Ideal chemistry: KCa_4_[B_5_O_8_(OH)]_4_[B(OH)_3_]_2_Cl4H_2_O
Locality: Potash Corporation of Saskatchewan mine, Penobsquis, Kings County, New Brunswick, Canada
Source: Donald M Doell and Brian Roulston
Description: Pale red platy crystals, extracted by dissolving the matrix of sylvite/halite, associated with strontioginorite R110149, howlite R110150, ruitenbergite R110152, congolite R110153, and hilgardite
Raman shift (cm-1)	intensity
157.171	0
160.064	4.63855
162.957	13.637
165.85	6.86658
168.742	14.686
171.635	18.162
174.528	11.3763
177.42	2.13568
180.313	1.97107
183.206	7.92725
186.098	9.4209
188.991	1.48297
191.884	4.42932
194.776	3.37866
197.669	6.69476
200.562	19.1325
203.455	25.0484
206.347	39.9395
209.24	40.5123
212.133	25.1981
215.025	10.8521
217.918	8.43982
220.811	4.14697
223.703	5.03546
226.596	2.84723
229.489	5.55298
232.382	2.93066
235.274	6.75793
238.167	3.73798
241.06	7.22797
243.952	12.4137
246.845	18.3182
249.738	14.5911
252.631	15.2572
255.523	13.7047
258.416	10.316
261.309	19.5577
264.201	13.7112
267.094	19.6341
269.987	16.6487
272.879	6.69531
275.772	2.29748
278.665	2.90533
281.558	1.82739
284.45	10.0972
287.343	21.2878
290.236	29.5055
293.128	28.7463
296.021	43.4863
298.914	61.3637
301.806	86.55
304.699	92.422
307.592	61.5989
310.485	22.5313
313.377	12.6282
316.27	5.20056
319.163	5.02918
322.055	1.64764
324.948	3.43665
327.841	6.61902
330.733	7.56952
333.626	6.06293
336.519	10.621
339.411	6.46942
342.304	2.03979
345.197	8.58118
348.09	5.92877
350.982	8.81628
353.875	12.1918
356.768	15.2924
359.66	26.8242
362.553	35.6843
365.446	48.2724
368.339	48.2834
371.231	31.8616
374.124	14.1705
377.017	2.52307
379.909	1.07159
382.802	0.805786
385.695	4.37518
388.587	10.1113
391.48	11.5364
394.373	3.58173
397.265	0.573242
400.158	1.03461
403.051	3.24451
405.944	9.20026
408.836	7.45532
411.729	9.58807
414.622	8.56342
417.514	11.6002
420.407	8.66864
423.3	7.47852
426.192	3.84351
429.085	2.03778
431.978	1.87604
434.871	4.22156
437.763	5.91492
440.656	0.057983
443.549	4.79034
446.441	7.00763
449.334	6.49341
452.227	17.7746
455.12	17.2102
458.012	24.6551
460.905	44.7371
463.798	46.1789
466.69	36.886
469.583	35.9883
472.476	52.1728
475.368	59.9848
478.261	57.0485
481.154	60.4953
484.046	42.0804
486.939	29.2134
489.832	33.9308
492.725	52.4788
495.617	73.2899
498.51	60.8292
501.403	27.0314
504.295	17.7452
507.188	9.77563
510.081	9.92413
512.973	4.44293
515.866	10.8686
518.759	4.77911
521.652	3.78424
524.544	8.1344
527.437	1.84155
530.33	4.953
533.222	0.924561
536.115	2.42566
539.008	3.79523
541.9	1.69897
544.793	2.58197
547.686	4.40234
550.579	4.14178
553.471	3.93762
556.364	3.19611
559.257	3.04327
562.149	7.70636
565.042	4.84686
567.935	13.1478
570.827	17.6451
573.72	27.9301
576.613	21.7323
579.506	16.2276
582.398	9.32745
585.291	8.53314
588.184	2.53638
591.076	1.29993
593.969	4.73383
596.862	14.5277
599.755	24.1732
602.647	35.6639
605.54	46.6013
608.433	65.9813
611.325	103.228
614.218	95.5729
617.111	52.0859
620.004	33.9068
622.896	21.8252
625.789	27.8957
628.682	23.8119
631.574	34.8231
634.467	41.3759
637.36	52.1005
640.252	47.6154
643.145	27.9606
646.038	12.4841
648.931	9.84735
651.823	10.583
654.716	10.9584
657.609	1.9931
660.501	4.05615
663.394	4.06702
666.287	0.43927
669.179	1.35315
672.072	4.77283
674.965	3.69537
677.857	1.09613
680.75	1.94519
683.643	0.280518
686.536	0.908752
689.428	1.6701
692.321	1.83063
695.214	1.01825
698.106	4.13202
700.999	14.2361
703.892	10.948
706.784	17.9449
709.677	16.5373
712.57	10.8231
715.463	12.6141
718.355	8.32922
721.248	5.54108
724.141	0.964783
727.033	4.40112
729.926	6.40936
732.819	4.24072
735.712	7.16785
738.604	1.61121
741.497	6.30768
744.39	12.0106
747.282	13.999
750.175	32.7917
753.068	54.6558
755.96	84.995
758.853	109.319
761.746	118.592
764.639	91.9209
767.531	80.6411
770.424	47.8321
773.317	19.7164
776.209	13.5891
779.102	2.76404
781.995	1.58466
784.887	2.62994
787.78	1.5412
790.673	0.781677
793.566	1.83466
796.458	0.517273
799.351	6.52686
802.244	12.111
805.136	13.3138
808.029	28.3936
810.922	41.6515
813.814	42.025
816.707	38.2543
819.6	24.4471
822.492	13.4101
825.385	6.90137
828.278	12.272
831.171	11.3285
834.063	15.7375
836.956	23.8132
839.849	40.6819
842.741	42.0508
845.634	31.7162
848.527	19.4899
851.419	8.38354
854.312	3.18109
857.205	3.91394
860.098	9.02527
862.99	10.8661
865.883	12.2096
868.776	15.6657
871.668	11.1542
874.561	19.9679
877.454	17.4097
880.346	27.4669
883.239	31.2472
886.132	43.0779
889.025	50.0883
891.917	57.2538
894.81	66.7962
897.703	74.171
900.595	70.3306
903.488	52.4118
906.381	31.524
909.274	14.5911
912.166	8.24027
915.059	0.033875
917.952	2.7634
920.844	1.35715
923.737	2.12006
926.63	1.25113
929.522	9.647
932.415	14.8835
935.308	16.8448
938.201	12.9137
941.093	18.1796
943.986	22.2606
946.879	26.8601
949.771	32.9414
952.664	18.3861
955.557	20.6031
958.449	10.9768
961.342	8.97702
964.235	3.94312
967.128	3.47348
970.02	4.27179
972.913	6.13373
975.806	9.44379
978.698	11.8458
981.591	13.2374
984.484	3.86603
987.376	1.22089
990.269	0.036133
993.162	0.546844
996.054	1.09381
998.947	4.55377
1001.84	4.00986
1004.73	4.17011
1007.62	9.87958
1010.52	5.5538
1013.41	3.63568
1016.3	8.30646
1019.2	3.315
1022.09	5.66214
1024.98	2.16092
1027.87	3.05869
1030.77	5.0506
1033.66	2.5723
1036.55	4.13113
1039.44	5.51923
1042.34	1.11584
1045.23	1.9032
1048.12	2.71265
1051.02	5.59982
1053.91	0.767609
1056.8	3.3143
1059.69	5.72864
1062.59	0.959381
1065.48	2.9281
1068.37	4.15597
1071.27	3.37924
1074.16	3.85315
1077.05	6.32748
1079.94	10.1901
1082.84	8.55002
1085.73	6.67966
1088.62	4.72687
1091.51	8.62219
1094.41	8.33124
1097.3	6.33438
1100.19	7.03055
1103.08	8.28079
1105.98	4.45328
1108.87	8.0415
1111.76	4.6182
1114.65	7.45233
1117.55	7.47464
1120.44	7.29038
1123.33	4.53183
1126.23	4.20428
1129.12	9.69571
1132.01	3.39682
1134.9	0.137299
1137.8	0.211121
1140.69	5.93536
1143.58	3.48498
1146.47	6.34055
1149.37	0.414795
1152.26	3.41806
1155.15	1.61035
1158.05	0.032623
1160.94	2.08655
1163.83	2.05313
1166.72	1.68683
1169.62	5.93475
1172.51	5.54733
1175.4	2.17786
1178.3	3.55423
1181.19	0.149323
1184.08	0.608002
1186.97	2.04285
1189.87	3.71085
1192.76	5.78195
1195.65	3.90875
1198.54	7.4241
1201.44	6.53473
1204.33	7.15326
1207.22	4.44214
1210.11	4.28091
1213.01	7.19424
1215.9	7.16879
1218.79	6.91586
1221.68	4.36063
1224.58	10.0592
1227.47	6.85608
1230.36	6.03326
1233.26	1.6496
1236.15	5.32996
1239.04	7.19043
1241.93	1.84381
1244.83	4.29373
1247.72	8.92065
1250.61	3.59049
1253.51	3.88876
1256.4	1.35736
1259.29	3.85751
1262.18	7.9798
1265.08	2.44196
1267.97	3.66531
1270.86	2.8529
1273.75	1.28354
1276.65	0.04306
