Measurement: Raman, 532 nm, unoriented, Raman Data Processed
Mineral: Vonsenite
Rruff sample: R050477
Ideal chemistry: Fe^2+^_2_Fe^3+^O_2_(BO_3_)
Locality: North Hill, Riverside, California, USA
Source: California Institute of Technology
Description: Aggregate of black granules
Measured chemistry: (Fe^2+^_0.63_Mg_0.37_)_2_Fe^3+^_1.00_BO_5_
Raman shift (cm-1)	intensity
143.076	0
146.451	6.05284
149.826	4.72223
153.201	2.68052
156.576	1.6414
159.951	0.14896
163.325	0.519886
166.7	0.332836
170.075	1.34981
173.45	1.7551
176.825	3.53748
180.199	3.91788
183.574	3.55591
186.949	3.98186
190.324	2.94091
193.699	2.81117
197.073	0.736053
200.448	0.649551
203.823	0.677444
207.198	2.33704
210.573	3.22942
213.948	3.55488
217.322	5.91193
220.697	7.08035
224.072	9.48882
227.447	12.9646
230.822	14.2208
234.196	15.7499
237.571	15.0924
240.946	11.6133
244.321	7.81976
247.696	3.38793
251.071	2.44557
254.445	1.3366
257.82	0.582287
261.195	0.184017
264.57	0.238064
267.945	0.946514
271.32	0.752834
274.694	1.28619
278.069	2.01227
281.444	2.06981
284.819	2.58966
288.193	2.60015
291.568	2.52587
294.943	2.81352
298.318	2.91044
301.693	2.78055
305.068	2.07912
308.442	2.4624
311.817	1.61774
315.192	1.62488
318.567	0.881443
321.942	0.962305
325.317	0.503471
328.691	0.067081
332.066	0.570778
335.441	0.532688
338.816	0.076885
342.191	0.29641
345.565	0.207818
348.94	0.490901
352.315	0.768245
355.69	0.886169
359.065	1.50738
362.44	2.05122
365.814	2.53795
369.189	3.32209
372.564	4.10933
375.939	4.49136
379.314	5.35762
382.688	6.59366
386.063	7.01113
389.438	8.30743
392.813	10.6118
396.188	10.8768
399.562	12.074
402.937	12.732
406.312	11.9807
409.687	11.134
413.062	8.15278
416.437	6.26691
419.811	3.13631
423.186	1.9012
426.561	0.610107
429.936	0.397705
433.311	0.367096
436.685	0.652676
440.06	0.667332
443.435	0.43518
446.81	0.179753
450.185	0.288557
453.56	0.441509
456.934	0.04225
460.309	0.183823
463.684	1.2921
467.059	1.18426
470.434	1.13373
473.808	1.06326
477.183	1.58101
480.558	2.03712
483.933	2.10174
487.308	1.84542
490.683	1.4259
494.057	1.59674
497.432	1.68505
500.807	1.77964
504.182	2.01842
507.557	1.84859
510.931	1.80169
514.306	1.65345
517.681	1.67009
521.056	0.8501
524.431	0.474789
527.806	0.327232
531.18	0.947899
534.555	0.317551
537.93	0.200394
541.305	0.148088
544.68	0.43379
548.054	0.817854
551.429	0.108196
554.804	0.30459
558.179	0.79287
561.554	1.57966
564.928	1.6984
568.303	3.30954
571.678	4.32337
575.053	5.51995
578.428	5.50687
581.803	6.41884
585.177	6.25988
588.552	6.45695
591.927	7.40605
595.302	7.56684
598.677	7.69769
602.052	9.30151
605.426	9.66172
608.801	10.7245
612.176	10.2247
615.551	8.57492
618.926	8.32979
622.3	8.09492
625.675	7.87344
629.05	7.84656
632.425	8.04976
635.8	8.47172
639.174	8.87766
642.549	9.75044
645.924	9.57494
649.299	9.44246
652.674	8.26938
656.048	7.71537
659.423	6.80758
662.798	4.9337
666.173	3.86662
669.548	3.01726
672.923	2.55762
676.297	1.242
679.672	0.959518
683.047	0.310999
686.422	0.418341
689.797	0.500454
693.172	0.046503
696.546	0.42021
699.921	0.097893
703.296	0.407295
706.671	0.486168
710.046	0.313843
713.42	0.128967
716.795	0.209581
720.17	0.218739
723.545	0.108603
726.92	0.027302
730.294	0.415569
733.669	0.154425
737.044	0.555689
740.419	0.152464
743.794	0.833959
747.169	0.653183
750.543	0.612309
753.918	0.285719
757.293	0.01232
760.668	0.450459
764.043	0.515383
767.418	0.362659
770.792	0.039612
774.167	0.499714
777.542	0.550566
780.917	0.328016
784.292	0.293858
787.666	0.496053
791.041	0.185585
794.416	0.563477
797.791	0.777308
801.166	0.478475
804.54	0.225929
807.915	0.703272
811.29	0.92803
814.665	0.653112
818.04	0.414347
821.415	0.901585
824.789	1.09673
828.164	0.555
831.539	1.57505
834.914	1.30921
838.289	1.67051
841.663	1.11648
845.038	1.4005
848.413	1.27571
851.788	1.06984
855.163	1.04354
858.538	1.16585
861.912	1.27025
865.287	1.41971
868.662	1.23173
872.037	0.704185
875.412	1.20087
878.786	1.01696
882.161	0.675232
885.536	0.834751
888.911	0.791082
892.286	1.00571
895.66	0.809296
899.035	0.360903
902.41	0.153484
905.785	0.342394
909.16	0.412848
912.535	0.003551
915.909	0.296949
919.284	0.128891
922.659	0.494047
926.034	0.214649
929.409	0.182405
932.784	0.773991
936.158	0.294605
939.533	0.216439
942.908	0.545544
946.283	0.530474
949.658	1.14162
953.032	0.155047
956.407	0.40433
959.782	0.396749
963.157	0.080809
966.532	0.127083
969.907	0.177041
973.281	0.065329
976.656	0.227744
980.031	0.488091
983.406	0.016794
986.781	0.582776
990.155	0.277241
993.53	0.318884
996.905	0.66386
1000.28	0.795477
1003.65	0.68411
1007.03	0.731725
1010.4	0.594109
1013.78	0.801825
1017.15	0.78161
1020.53	1.21705
1023.9	1.00087
1027.28	0.554967
1030.65	0.695676
1034.03	1.14687
1037.4	1.20691
1040.78	0.688501
1044.15	0.847067
1047.53	0.525117
1050.9	0.37162
1054.28	0.728852
1057.65	0.68088
1061.03	0.348521
1064.4	0.706326
1067.78	0.606485
1071.15	1.12498
1074.53	0.55615
1077.9	0.55722
1081.28	0.082346
1084.65	0.187614
1088.03	0.107821
1091.4	0.859326
1094.78	0.281988
1098.15	0.068501
1101.52	0.010125
1104.9	1.00994
1108.27	0.863951
1111.65	0.273606
1115.02	0.45261
1118.4	0.485048
1121.77	0.33911
1125.15	0.099763
1128.52	0.027662
1131.9	0.702516
1135.27	0.209615
1138.65	0.406039
1142.02	0.283145
1145.4	0.631348
1148.77	0.081706
1152.15	0.093597
1155.52	0.02712
1158.9	0.067203
1162.27	0.035651
1165.65	0.05191
1169.02	0.135156
1172.4	0.111697
1175.77	0.201614
1179.14	0.023024
1182.52	0.302355
1185.89	0.422593
1189.27	0.68804
1192.64	0.973116
1196.02	0.56566
1199.39	0.840487
1202.77	0.761148
1206.14	0.868855
1209.52	0.934424
1212.89	1.2397
1216.27	1.15702
1219.64	1.01051
1223.02	1.53784
1226.39	1.11793
1229.77	1.12749
1233.14	1.14624
1236.52	0.792941
1239.89	0.851223
1243.27	1.06597
1246.64	0.845531
1250.02	0.603062
1253.39	1.13197
1256.77	1.40999
1260.14	0.783726
1263.52	0.616939
1266.89	1.33978
1270.27	0.642976
1273.64	0.429013
1277.02	0.596023
1280.39	0.846836
1283.76	1.02978
1287.14	1.05497
1290.51	0.856408
1293.89	0.417898
1297.26	0.701818
1300.64	0.857893
