Measurement: Raman, 780 nm, unoriented, Raman Data Processed
Mineral: Vonsenite
Rruff sample: R050221
Ideal chemistry: Fe^2+^_2_Fe^3+^O_2_(BO_3_)
Locality: Monchi mine, Burguillos del Cerro, Badajoz, Extremadura, Spain
Source: Marcus Origlieri
Description: Mass of thin bladed black crystals
Measured chemistry: (Fe^2+^_1.96_Mg_0.03_Mn_0.01_)_Σ=2_(Fe^3+^_0.98_Al_0.02_)_Σ=1_BO_5_
Raman shift (cm-1)	intensity
126.102	0
129.476	3.83601
132.851	1.01665
136.226	1.97052
139.601	2.56341
142.976	0.959549
146.351	1.1455
149.725	2.20773
153.1	2.63405
156.475	0.761299
159.85	0.504456
163.225	0.680298
166.6	0.032455
169.974	0.543091
173.349	1.2701
176.724	0.318367
180.099	0.787796
183.474	1.86278
186.848	1.03841
190.223	2.51788
193.598	2.60774
196.973	5.50484
200.348	6.25401
203.722	10.448
207.097	9.30005
210.472	10.2321
213.847	9.83297
217.222	8.99783
220.596	6.38668
223.971	5.1442
227.346	3.31683
230.721	3.99346
234.096	2.1609
237.471	1.76421
240.845	1.6768
244.22	2.82401
247.595	2.03398
250.97	3.02924
254.345	2.77686
257.719	4.6791
261.094	4.94833
264.469	6.15997
267.844	6.75219
271.219	6.43603
274.594	7.10933
277.968	6.58893
281.343	5.27425
284.718	5.11959
288.093	4.24538
291.468	3.42792
294.842	1.83747
298.217	0.985771
301.592	1.16374
304.967	0.555428
308.342	0.123909
311.717	0.20993
315.091	0.16642
318.466	0.093689
321.841	1.05052
325.216	0.521965
328.591	0.098251
331.966	0.393715
335.34	0.837494
338.715	0.708588
342.09	0.213058
345.465	0.263802
348.839	0.293221
352.214	0.309166
355.589	0.130955
358.964	0.544865
362.339	0.017387
365.714	0.342297
369.088	0.46246
372.463	0.143723
375.838	0.619869
379.213	0.123638
382.588	1.37993
385.962	0.68935
389.337	0.81683
392.712	0.944897
396.087	1.2742
399.462	0.807224
402.837	1.12997
406.211	1.22134
409.586	0.568676
412.961	0.748856
416.336	0.772194
419.711	0.770298
423.086	0.528301
426.46	0.488701
429.835	0.422169
433.21	0.46627
436.585	1.43226
439.96	0.497837
443.334	0.424149
446.709	1.05346
450.084	0.803417
453.459	0.667713
456.834	1.10978
460.209	0.693043
463.583	1.33607
466.958	0.785267
470.333	0.652447
473.708	0.760338
477.083	0.928276
480.457	1.28968
483.832	1.26408
487.207	0.002956
490.582	0.955204
493.957	0.016884
497.332	0.214401
500.706	0.676971
504.081	0.35952
507.456	0.366112
510.831	0.170715
514.206	0.006126
517.58	0.158375
520.955	0.081429
524.33	0.445152
527.705	0.244991
531.08	0.063496
534.455	0.399071
537.829	0.42606
541.204	0.75695
544.579	0.792408
547.954	0.26796
551.329	0.348812
554.703	0.955723
558.078	0.997902
561.453	0.905773
564.828	0.261803
568.203	1.10909
571.577	0.496387
574.952	1.06118
578.327	1.15491
581.702	0.50296
585.077	0.107574
588.452	0.56361
591.826	0.898571
595.201	0.82793
598.576	0.012615
601.951	0.701115
605.326	0.405273
608.7	0.724857
612.075	0.75993
615.45	0.78698
618.825	1.15446
622.2	0.576538
625.574	0.866348
628.949	0.78812
632.324	0.256851
635.699	0.934353
639.074	0.532898
642.448	1.2208
645.823	0.378067
649.198	1.02933
652.573	0.511921
655.948	0.530483
659.323	0.397556
662.697	0.31702
666.072	0.457417
669.447	0.373299
672.822	0.772015
676.197	0.700115
679.572	1.05941
682.946	0.616203
686.321	0.687527
689.696	0.049847
693.071	0.170856
696.446	0.07737
699.82	0.687599
703.195	0.674416
706.57	0.446407
709.945	0.50412
713.32	0.224651
716.694	0.684586
720.069	0.0933
723.444	0.45013
726.819	0.381672
730.194	0.153324
733.569	0.115913
736.943	0.808598
740.318	0.3661
743.693	0.568783
747.068	0.032852
750.443	0.876335
753.817	0.438469
757.192	0.131805
760.567	0.311707
763.942	0.254597
767.317	0.727951
770.692	0.32069
774.066	0.004143
777.441	0.253742
780.816	1.07521
784.191	1.0306
787.566	0.87027
790.941	0.749187
794.315	0.481216
797.69	0.708706
801.065	1.47599
804.44	0.929501
807.815	1.07354
811.189	0.823242
814.564	0.967686
817.939	1.4874
821.314	1.85939
824.689	0.603668
828.063	1.79136
831.438	1.93956
834.813	1.6219
838.188	1.78132
841.563	1.55099
844.938	1.61778
848.312	2.26354
851.687	2.28956
855.062	1.22875
858.437	1.46103
861.812	1.753
865.187	2.45181
868.561	1.66005
871.936	1.93501
875.311	1.12579
878.686	1.24251
882.061	0.723961
885.435	1.14369
888.81	0.611645
892.185	1.31229
895.56	0.170891
898.935	0.646238
902.309	0.451284
905.684	0.568644
909.059	0.377977
912.434	0.399406
915.809	0.26251
919.183	0.144091
922.558	0.214209
925.933	0.708248
929.308	0.016411
932.683	0.392729
936.058	0.816784
939.432	0.598831
942.807	0.062023
946.182	0.26243
949.557	0.554312
952.932	0.584167
956.307	0.472366
959.681	0.695082
963.056	0.133024
966.431	0.677561
969.806	0.665138
973.181	0.405678
976.555	0.567335
979.93	0.794836
983.305	0.585615
986.68	0.510603
990.055	0.903423
993.429	0.428707
996.804	0.704409
1000.18	1.043
1003.55	0.335482
1006.93	0.856474
1010.3	0.31221
1013.68	0.772049
1017.05	0.082954
1020.43	0.642593
1023.8	0.806799
1027.18	0.169838
1030.55	0.396973
1033.93	0.801888
1037.3	0.394646
1040.68	1.26497
1044.05	0.799553
1047.43	0.625555
1050.8	0.488693
1054.18	0.39267
1057.55	1.31591
1060.93	1.30879
1064.3	0.626764
1067.67	0.385447
1071.05	0.673481
1074.42	0.974697
1077.8	1.26629
1081.17	0.204533
1084.55	0.428476
1087.92	0.742327
1091.3	0.241383
1094.67	0.339504
1098.05	0.112658
1101.42	0.047733
1104.8	0.153059
1108.17	0.187162
1111.55	0.452166
1114.92	0.399895
1118.3	0.216246
1121.67	0.002527
1125.05	0.152098
1128.42	0.395382
1131.8	0.720278
1135.17	0.707371
1138.55	0.3379
1141.92	0.334879
1145.3	0.296083
1148.67	0.922039
1152.05	0.017496
1155.42	0.024876
1158.8	0.459585
1162.17	0.403368
1165.55	0.305122
1168.92	0.46994
1172.3	0.489933
1175.67	0.416906
1179.04	0.935024
1182.42	0.457705
1185.79	0.012552
1189.17	1.57884
1192.54	0.607418
1195.92	0.391514
1199.29	0.78326
1202.67	0.608536
1206.04	0.350687
1209.42	0.61021
1212.79	0.469799
1216.17	0.332039
1219.54	0.251991
1222.92	0.528103
1226.29	0.425602
1229.67	1.12633
1233.04	0.258356
1236.42	0.756804
1239.79	0.930964
1243.17	0.828014
1246.54	0.89217
1249.92	0.621609
1253.29	0.796864
1256.66	0.720512
1260.04	0.54142
1263.41	0.637611
1266.79	0.389297
1270.16	0.422419
1273.54	0.999573
1276.91	1.0588
1280.29	0.467236
1283.66	0.230675
