Measurement: Raman, 780 nm, unoriented, Raman Data Processed
Mineral: Wadsleyite
Rruff sample: R090004
Ideal chemistry: Mg_2_SiO_4_
Locality: Synthetic
Source: Hexiong Yang
Description: Colorless crystals
Raman shift (cm-1)	intensity
104.39	0
107.282	3.47492
110.175	0.120239
113.068	4.66589
115.961	6.67798
118.853	5.54706
121.746	6.37115
124.639	10.6425
127.531	5.64825
130.424	6.97882
133.317	0.157288
136.209	2.5658
139.102	4.91669
141.995	7.32825
144.888	1.47803
147.78	3.16827
150.673	2.40204
153.566	5.89752
156.458	4.58106
159.351	3.36914
162.244	1.51923
165.137	0.654419
168.029	4.35272
170.922	0.677673
173.815	1.66565
176.707	0.497192
179.6	1.20496
182.493	0.811157
185.385	3.53284
188.278	3.86981
191.171	6.05048
194.064	1.60266
196.956	2.57971
199.849	3.22315
202.742	5.78314
205.634	3.2381
208.527	0.128784
211.42	2.77063
214.312	5.48102
217.205	2.87158
220.098	2.75122
222.991	7.57343
225.883	6.77002
228.776	10.8381
231.669	13.1114
234.561	10.5148
237.454	7.75494
240.347	8.89154
243.239	5.52576
246.132	8.47937
249.025	9.45697
251.918	8.1831
254.81	6.98334
257.703	7.87763
260.596	9.2522
263.488	18.1624
266.381	15.9245
269.274	12.3009
272.166	11.345
275.059	9.87305
277.952	9.97595
280.845	8.31445
283.737	12.6467
286.63	8.43701
289.523	12.1891
292.415	8.78906
295.308	8.99127
298.201	10.931
301.094	11.4755
303.986	6.72522
306.879	9.79797
309.772	8.29797
312.664	8.48102
315.557	5.28497
318.45	8.13501
321.342	11.4237
324.235	10.6591
327.128	7.48206
330.021	4.68036
332.913	0.793457
335.806	0.74646
338.699	1.95892
341.591	1.01971
344.484	0.971558
347.377	2.28015
350.269	2.12048
353.162	1.18018
356.055	0.796936
358.947	0.753662
361.84	1.32861
364.733	4.62329
367.626	1.95807
370.518	8.73187
373.411	9.0044
376.304	9.86792
379.196	13.4793
382.089	18.8763
384.982	19.9848
387.875	26.5544
390.767	31.8733
393.66	31.2034
396.553	39.8213
399.445	44.3367
402.338	45.8937
405.231	50.1151
408.123	50.7478
411.016	53.3079
413.909	57.3254
416.802	63.3649
419.694	70.4679
422.587	76.2609
425.48	81.4615
428.372	88.1814
431.265	86.4119
434.158	90.121
437.05	93.7897
439.943	100.96
442.836	112.021
445.729	112.807
448.621	81.1953
451.514	64.307
454.407	55.4014
457.299	53.0363
460.192	46.5382
463.085	41.8549
465.978	39.4211
468.87	35.6185
471.763	30.4137
474.656	28.973
477.548	30.7308
480.441	25.2888
483.334	25.5613
486.226	27.9427
489.119	22.4875
492.012	23.0754
494.904	14.3646
497.797	14.1349
500.69	10.6433
503.583	7.72516
506.475	7.83106
509.368	7.82135
512.261	8.58838
515.153	3.57391
518.046	0.786255
520.939	0.187683
523.832	0.088196
526.724	3.13892
529.617	1.92438
532.51	2.10205
535.402	1.86713
538.295	5.78021
541.188	7.35913
544.08	13.0169
546.973	16.4518
549.866	16.6334
552.759	25.6909
555.651	16.1926
558.544	5.13806
561.437	0.602417
564.329	0.95874
567.222	1.80792
570.115	1.30273
573.007	3.41254
575.9	5.70319
578.793	10.2263
581.686	18.3585
584.578	24.4304
587.471	18.3532
590.364	10.2967
593.256	3.61816
596.149	4.66846
599.042	0.746338
601.934	4.91211
604.827	7.94995
607.72	9.43274
610.613	10.6024
613.505	13.5401
616.398	16.3507
619.291	19.8472
622.183	17.5564
625.076	13.9424
627.969	5.35242
630.861	2.55371
633.754	1.01617
636.647	3.15271
639.54	3.28357
642.432	3.63397
645.325	3.34271
648.218	3.41345
651.11	0.143066
654.003	1.85059
656.896	0.090271
659.788	1.3269
662.681	3.13361
665.574	4.25659
668.467	0.981995
671.359	4.12134
674.252	1.06079
677.145	3.8009
680.037	0.126404
682.93	0.531372
685.823	2.70007
688.716	4.40985
691.608	2.97394
694.501	9.10077
697.394	6.37329
700.286	7.22345
703.179	16.4686
706.072	26.9373
708.965	45.3519
711.857	67.3122
714.75	84.4371
717.643	114.783
720.535	160.255
723.428	173.476
726.321	123.502
729.213	63.3751
732.106	30.5452
734.999	18.3068
737.891	7.08734
740.784	3.83447
743.677	4.20813
746.57	0.888367
749.462	0.886414
752.355	2.79321
755.248	0.032593
758.14	1.61783
761.033	1.14111
763.926	4.62582
766.818	7.74689
769.711	13.3673
772.604	21.1761
775.497	23.7779
778.389	26.7597
781.282	25.8265
784.175	18.0182
787.067	14.6921
789.96	5.45349
792.853	9.12808
795.745	8.28787
798.638	3.14957
801.531	3.62723
804.424	3.36203
807.316	8.11105
810.209	4.19705
813.102	4.71967
815.994	5.68957
818.887	6.00131
821.78	2.43655
824.673	3.14722
827.565	0.895477
830.458	0.201874
833.351	0.221191
836.243	0.515045
839.136	1.86652
842.029	2.49264
844.921	4.289
847.814	0.299316
850.707	1.29865
853.6	2.72138
856.492	5.53564
859.385	5.36359
862.278	4.11902
865.17	5.10913
868.063	3.46799
870.956	8.95129
873.848	8.57761
876.741	14.0969
879.634	16.8714
882.527	19.8139
885.419	25.6545
888.312	25.9683
891.205	33.11
894.097	39.123
896.99	52.4409
899.883	66.9014
902.775	92.9599
905.668	119.374
908.561	154.236
911.454	189.039
914.346	222.167
917.239	250.023
920.132	250.261
923.024	209.829
925.917	140.33
928.81	93.0533
931.702	61.8807
934.595	42.9338
937.488	31.7972
940.381	21.8163
943.273	15.8643
946.166	11.606
949.059	7.36429
951.951	4.6485
954.844	4.18512
957.737	2.80649
960.63	1.68631
963.522	2.24411
966.415	0.715607
969.308	1.35159
972.2	0.146637
975.093	0.654144
977.986	1.73965
980.878	1.16269
983.771	3.49814
986.664	1.12357
989.557	1.35107
992.449	4.34369
995.342	0.419098
998.235	2.39075
1001.13	3.06986
1004.02	5.42581
1006.91	2.09088
1009.8	4.70877
1012.7	3.8555
1015.59	2.04831
1018.48	6.48093
1021.38	5.07587
1024.27	5.49963
1027.16	5.50595
1030.05	5.51715
1032.95	10.9795
1035.84	7.43185
1038.73	9.81757
1041.62	7.0426
1044.52	5.78824
1047.41	6.98209
1050.3	5.11688
1053.2	4.34366
1056.09	2.43277
1058.98	6.38797
1061.87	5.29764
1064.77	4.28964
1067.66	1.68481
1070.55	2.76547
1073.44	1.93359
1076.34	1.474
1079.23	0.342712
1082.12	0.883209
1085.02	1.12717
1087.91	0.799774
1090.8	1.25275
1093.69	4.48334
1096.59	2.06055
1099.48	5.33557
1102.37	1.54645
1105.27	7.94171
1108.16	4.17053
1111.05	9.9455
1113.94	9.19641
1116.84	6.18231
1119.73	2.06506
1122.62	6.13367
1125.51	5.42908
1128.41	2.68927
1131.3	1.81122
1134.19	1.50263
1137.08	0.795227
1139.98	0.983887
1142.87	0
