Measurement: Raman, 780 nm, unoriented, Raman Data Processed
Mineral: Warwickite
Rruff sample: R050674
Ideal chemistry: (Mg,Ti^4+^,Fe^3+^,Cr^3+^,Al)_2_O(BO_3_)
Locality: Edenville, Orange County, New York, USA
Source: University of Arizona Mineral Museum
Description: Black prismatic crystals embedded in matrix
Measured chemistry: (Mg_1.23_Ti_0.39_Fe^2+^_0.17_Al_0.19_Fe^3+^_0.02_)_Î£=2_O(BO_3_) ; B not measured but estimated by difference and charge balance
Raman shift (cm-1)	intensity
150.673	0
153.566	1.16317
156.458	0.861044
159.351	0.619743
162.244	0.495131
165.137	0.675018
168.029	0.989784
170.922	1.2223
173.815	0.983458
176.707	0.90287
179.6	0.944906
182.493	0.79509
185.385	0.801386
188.278	1.00478
191.171	0.006208
194.064	0.953405
196.956	0.092684
199.849	0.46261
202.742	0.062998
205.634	0.136497
208.527	0.345795
211.42	0.789171
214.312	0.796238
217.205	0.374182
220.098	0.753704
222.991	0.595116
225.883	0.778082
228.776	0.369108
231.669	0.780899
234.561	0.471466
237.454	0.557102
240.347	1.05448
243.239	0.749815
246.132	0.73147
249.025	0.456057
251.918	0.116385
254.81	0.078125
257.703	0.020449
260.596	0.274477
263.488	0.470028
266.381	0.176659
269.274	0.143034
272.166	0.441856
275.059	0.046505
277.952	0.187689
280.845	0.188974
283.737	0.755075
286.63	0.340166
289.523	0.271227
292.415	0.345158
295.308	0.062445
298.201	0.330402
301.094	0.099726
303.986	0.600414
306.879	0.625793
309.772	0.384022
312.664	0.875002
315.557	0.354763
318.45	0.306105
321.342	0.516069
324.235	0.101522
327.128	0.595448
330.021	0.242336
332.913	0.289686
335.806	0.31324
338.699	0.473421
341.591	0.369143
344.484	0.353924
347.377	0.323947
350.269	0.540601
353.162	0.291307
356.055	0.254555
358.947	0.109017
361.84	0.973685
364.733	0.548846
367.626	0.635007
370.518	0.841533
373.411	0.627576
376.304	0.475019
379.197	0.180429
382.089	0.538147
384.982	0.409533
387.875	0.651196
390.767	0.790148
393.66	0.455448
396.553	0.629798
399.445	0.581777
402.338	1.1096
405.231	1.0334
408.123	1.11986
411.016	0.867487
413.909	1.07533
416.802	0.951875
419.694	1.06387
422.587	1.1707
425.48	1.32228
428.372	1.15391
431.265	1.33488
434.158	0.975817
437.05	1.14604
439.943	0.890992
442.836	0.749935
445.729	0.619513
448.621	0.197506
451.514	0.334291
454.407	0.03539
457.299	0.035272
460.192	0.112289
463.085	0.288541
465.978	0.212217
468.87	0.004975
471.763	0.128776
474.656	0.339454
477.548	0.390177
480.441	0.289226
483.334	0.688338
486.226	0.352983
489.119	0.536127
492.012	0.569382
494.904	0.807201
497.797	0.533216
500.69	1.01301
503.583	1.06289
506.475	0.985026
509.368	1.42398
512.261	1.66189
515.153	1.90718
518.046	1.94627
520.939	2.38421
523.832	2.54183
526.724	2.68977
529.617	2.91289
532.51	3.15907
535.402	2.70239
538.295	3.06823
541.188	2.67056
544.081	2.65883
546.973	2.41635
549.866	1.34448
552.759	1.74115
555.651	1.50593
558.544	1.17649
561.437	0.867097
564.329	0.138491
567.222	0.07685
570.115	0.070829
573.008	0.269061
575.9	0.187414
578.793	0.00711
581.686	0.101355
584.578	0.065023
587.471	0.001892
590.364	0.078844
593.256	0.126147
596.149	0.147102
599.042	0.053919
601.934	0.158037
604.827	0.27834
607.72	0.160419
610.613	0.217129
613.505	0.362194
616.398	0.265918
619.291	0.031477
622.183	0.27383
625.076	0.208675
627.969	0.070437
630.861	0.309168
633.754	0.44974
636.647	0.0934
639.54	0.185534
642.432	0.116034
645.325	0.312505
648.218	0.287894
651.111	0.351729
654.003	0.235319
656.896	0.217467
659.789	0.065462
662.681	0.332736
665.574	0.553571
668.467	0.740546
671.359	0.950034
674.252	0.890254
677.145	0.695127
680.038	0.672145
682.93	1.00533
685.823	0.953589
688.716	0.678507
691.608	0.273893
694.501	0.333317
697.394	0.028701
700.286	0.037302
703.179	0.254618
706.072	0.157493
708.965	0.497576
711.857	0.786542
714.75	1.30472
717.643	2.2272
720.535	2.494
723.428	3.17972
726.321	3.97686
729.213	4.96905
732.106	5.90579
734.999	5.92226
737.891	6.61438
740.784	7.48222
743.677	7.36075
746.57	6.71707
749.462	6.45643
752.355	6.3767
755.248	5.78511
758.14	4.54919
761.033	4.32965
763.926	3.91307
766.818	3.31315
769.711	3.28916
772.604	2.75567
775.497	2.45667
778.389	2.39652
781.282	2.38689
784.175	2.02904
787.067	1.78919
789.96	1.77642
792.853	1.15895
795.745	1.18588
798.638	1.15622
801.531	0.486101
804.424	0.543484
807.316	0.212604
810.209	0.124406
813.102	0.076902
815.994	0.093188
818.887	0.085126
821.78	0.108042
824.673	0.121889
827.565	0.142391
830.458	0.04848
833.351	0.215474
836.243	0.138441
839.136	0.171879
842.029	0.612202
844.922	0.631172
847.814	0.625281
850.707	0.774714
853.6	0.509995
856.492	0.607348
859.385	0.574924
862.278	0.820018
865.17	0.726732
868.063	0.484395
870.956	0.967017
873.848	0.933131
876.741	0.705743
879.634	0.600003
882.527	0.570447
885.419	0.599923
888.312	0.343655
891.205	0.209037
894.097	0.188918
896.99	0.357939
899.883	0.033102
902.775	0.187686
905.668	0.178237
908.561	0.148137
911.454	0.271201
914.346	0.177158
917.239	0.205733
920.132	0.339745
923.024	0.309232
925.917	0.08557
928.81	0.170552
931.703	0.384093
934.595	0.263149
937.488	0.522521
940.381	0.098833
943.273	0.603325
946.166	0.445692
949.059	0.549279
951.952	0.697755
954.844	0.521149
957.737	0.724485
960.63	0.727786
963.522	0.840184
966.415	0.781811
969.308	0.865499
972.2	0.624125
975.093	0.86609
977.986	0.227116
980.879	0.312081
983.771	0.239742
986.664	0.372463
989.557	0.226622
992.449	0.332576
995.342	0.080726
998.235	0.025652
1001.13	0.082414
1004.02	0.168087
1006.91	0.097295
1009.8	0.067285
1012.7	0.042891
1015.59	0.068394
1018.48	0.373919
1021.38	0.246153
1024.27	0.205795
1027.16	0.238755
1030.05	0.291179
1032.95	0.215824
1035.84	0.115463
1038.73	0.161047
1041.62	0.482944
1044.52	0.423183
1047.41	0.160804
1050.3	0.278001
1053.2	0.252933
1056.09	0.22057
1058.98	0.190238
1061.87	0.293998
1064.77	0.356522
1067.66	0.357611
1070.55	0.099722
1073.44	0.144743
1076.34	0.53179
1079.23	0.567406
1082.12	0.583598
1085.02	0.488731
1087.91	0.533134
1090.8	0.444014
1093.69	0.336953
1096.59	0.259614
1099.48	0.381026
1102.37	0.094853
1105.27	0.154103
1108.16	0.057321
1111.05	0.004355
1113.94	0.280373
1116.84	0.056018
1119.73	0.209429
1122.62	0.208572
1125.51	0.08315
1128.41	0.159857
1131.3	0.170312
1134.19	0.379785
1137.08	0.061637
1139.98	0.012949
1142.87	0.262267
1145.76	0.014472
1148.65	0.473375
1151.55	0.168779
1154.44	0.341764
1157.33	0.1148
1160.23	0.261518
1163.12	0.322093
1166.01	0.212268
1168.9	0.393907
1171.8	0.187717
1174.69	0.264952
1177.58	0.473114
1180.47	0.294748
1183.37	0.217605
1186.26	0.259756
1189.15	0.406482
1192.05	0.245543
1194.94	0.190383
1197.83	0.614922
1200.72	0.493989
1203.62	0.204563
1206.51	0.574428
1209.4	0.482835
1212.3	0.334789
1215.19	0.225946
1218.08	0.15593
1220.97	0.310509
1223.87	0.208127
1226.76	0.629727
1229.65	0.202618
1232.54	0.033686
1235.44	0.362179
1238.33	0.447158
1241.22	0.421084
1244.11	0.370307
1247.01	0.365105
1249.9	0.518549
1252.79	0.442576
1255.68	0.154809
1258.58	0.330685
1261.47	0.273098
1264.36	0.308641
1267.26	0.501512
1270.15	0.250111
1273.04	0.043101
1275.93	0.353217
1278.83	0.454412
1281.72	0.122451
