Measurement: Raman, 514 nm, unoriented, Raman Data Processed
Mineral: Wavellite
Rruff sample: R050219
Ideal chemistry: Al_3_(PO_4_)_2_(OH)_3_5H_2_O
Locality: Kapunda Quarry, South Australia, Australia
Source: Marcus Origlieri
Description: Radial aggregate of colorless acicular crystals
Measured chemistry: (Al_2.96_Fe^3+^_0.04_)_Σ=3_(P_1.00_O_4_)_2_((OH)_2.02_F_0.98_)_Σ=3_·5H_2_O
Raman shift (cm-1)	intensity
105.908	0
110.082	204.88
114.254	648.093
118.424	1247.63
122.592	1110.74
126.758	893.221
130.922	576.866
135.083	21.047
139.243	212.705
143.401	88.277
147.557	290.407
151.711	313.097
155.863	402.884
160.013	694.524
164.161	846.748
168.308	782.382
172.452	450.382
176.594	148.677
180.734	26.119
184.872	62.581
189.008	168.924
193.143	209.506
197.275	201.332
201.405	188.007
205.534	654.601
209.66	1133.57
213.784	1291.88
217.907	849.564
222.027	481.687
226.146	405.329
230.263	524.705
234.377	371.231
238.49	348.381
242.601	470.986
246.709	548.796
250.816	446.799
254.921	408.994
259.024	492.388
263.125	328.972
267.224	437.736
271.321	835.973
275.416	1005.32
279.51	1120.68
283.601	1413.17
287.69	1295.49
291.778	1181.92
295.863	711.969
299.947	349.769
304.029	772.063
308.108	1503.72
312.186	2720.21
316.262	2830.06
320.336	1827.24
324.408	1066.7
328.478	546.435
332.546	478.416
336.612	220.624
340.677	308.172
344.739	443.274
348.799	763.748
352.858	1232.06
356.915	1305.97
360.969	840.918
365.022	540.432
369.073	494.605
373.122	426.4
377.169	827.461
381.215	1098.15
385.258	1599.96
389.299	2247.91
393.339	2945.99
397.376	3386.28
401.412	3077.7
405.446	3029.31
409.478	2644.96
413.508	2118.66
417.536	1624.36
421.562	1228.09
425.586	976.848
429.609	907.59
433.629	564.49
437.648	359.279
441.665	279.561
445.68	47.527
449.693	92.152
453.704	289.037
457.713	11.955
461.721	107.932
465.726	42.953
469.73	118.908
473.731	441.785
477.731	375.578
481.729	239.275
485.725	328.875
489.72	261.35
493.712	20.215
497.703	13.881
501.691	59.115
505.678	97.025
509.663	79.328
513.646	71.445
517.627	6.953
521.607	105.049
525.584	54.711
529.56	301.359
533.534	78.498
537.506	436.082
541.476	431.121
545.444	482.305
549.41	582.225
553.375	652.443
557.337	634.211
561.298	546.281
565.257	765.236
569.214	911.072
573.17	852.713
577.123	839.217
581.075	914.129
585.024	647.557
588.972	880.115
592.918	823.799
596.863	823.744
600.805	894.117
604.746	926.996
608.685	778.176
612.621	1042.8
616.557	1190.87
620.49	1351.67
624.421	1356.91
628.351	1971.36
632.279	1910.78
636.205	1564.66
640.129	1681.35
644.051	1511.18
647.972	1606.56
651.89	1184.95
655.807	1333.94
659.722	1333.48
663.636	870.59
667.547	808.787
671.457	474.387
675.365	411.336
679.271	379.41
683.175	363.305
687.077	291.096
690.978	389.77
694.877	381.15
698.774	70.475
702.669	182.979
706.562	331.42
710.454	221.068
714.344	9.408
718.232	173.377
722.118	124.445
726.002	128.307
729.885	176.613
733.766	18.521
737.645	89.744
741.522	187.184
745.397	157.107
749.271	331.459
753.143	5.99
757.013	85.119
760.881	36.445
764.748	157.297
768.613	65.018
772.476	119.309
776.337	191.549
780.196	224.684
784.054	153.303
787.91	88.604
791.764	100.221
795.616	175.338
799.467	198.967
803.316	132.75
807.163	324.691
811.008	73.287
814.851	290.145
818.693	303.182
822.533	156.945
826.371	327.566
830.208	304.803
834.042	62.377
837.875	282.127
841.706	439.82
845.536	357.006
849.363	57.668
853.189	131.256
857.013	452.346
860.836	304.5
864.656	553.629
868.475	256.48
872.292	238.363
876.108	74.102
879.922	202.686
883.733	364.338
887.544	23.879
891.352	58.781
895.159	255.264
898.964	51.842
902.767	207.076
906.568	244.387
910.368	267.895
914.166	163.018
917.962	49.027
921.757	259.248
925.55	294.531
929.341	212.451
933.13	251.615
936.918	48.594
940.703	250.115
944.488	157.02
948.27	379.846
952.051	284.725
955.83	370.922
959.607	170.596
963.383	262.338
967.156	269.588
970.928	348.805
974.699	280.09
978.468	238.047
982.234	379.273
986	723.406
989.763	770.457
993.525	953.176
997.285	1426.81
1001.04	2045.96
1004.8	2415.9
1008.55	3124.3
1012.31	4743.47
1016.06	6314.8
1019.81	7488.68
1023.56	8175.21
1027.31	7061.31
1031.05	5275.09
1034.79	3489.1
1038.53	2891.27
1042.27	2708.05
1046.01	2662.56
1049.75	2915.5
1053.48	2470.22
1057.22	2118.12
1060.95	1401.2
1064.68	1368.82
1068.4	1197.22
1072.13	1003.91
1075.86	902.375
1079.58	875.223
1083.3	466.562
1087.02	461.062
1090.74	474.996
1094.45	429.387
1098.17	354.117
1101.88	445.367
1105.59	529.867
1109.3	318.922
1113.01	539.594
1116.71	586.191
1120.42	712.703
1124.12	718.695
1127.82	536.781
1131.52	548.812
1135.22	605.359
1138.91	1080.76
1142.61	1040.34
1146.3	1513.7
1149.99	1539.54
1153.68	1736.7
1157.37	1348.96
1161.06	1229.69
1164.74	742.797
1168.42	708.461
1172.1	181.012
1175.78	380.441
1179.46	300.691
1183.14	371.199
1186.81	136.809
1190.48	168.25
1194.15	111.734
1197.83	273.316
1201.49	25.203
1205.16	341.824
1208.82	423.527
1212.49	232.316
1216.15	300.734
1219.81	37.746
1223.46	289.547
1227.12	77.504
1230.78	400.285
1234.43	342.945
1238.08	357.82
1241.73	294.59
1245.38	196.82
1249.03	16.336
1252.67	170.641
1256.31	148.184
1259.95	371.23
1263.6	346.805
1267.23	337.871
1270.87	270.137
1274.51	205.703
1278.14	186.41
1281.77	339.188
1285.4	483.934
1289.03	423.922
1292.66	215.562
1296.28	362.508
1299.91	435.848
1303.53	343.449
1307.15	296.082
1310.77	667.754
1314.38	76.797
1318	249.535
1321.61	185.625
1325.23	139.262
1328.84	158.484
1332.45	332.426
1336.06	167.871
1339.66	338.754
1343.27	522.566
1346.87	332.262
1350.47	117.176
1354.07	587.949
1357.67	541.773
1361.26	639.414
1364.86	477.648
1368.45	426.031
1372.04	316.844
1375.63	495.156
1379.22	6.816
1382.81	0
