Measurement: Raman, 532 nm, unoriented, Raman Data Processed
Mineral: Weddellite
Rruff sample: R110123
Ideal chemistry: Ca(C_2_)^6+^O_4_2H_2_O
Locality: Tucson, Arizona, USA
Source: Gordie Downs
Description: White to colorless spheroidal crystals found in the pith of a living Saguaro cactus
Raman shift (cm-1)	intensity
181.13	0
184.023	43.4238
186.916	68.9458
189.808	56.9878
192.701	39.0957
195.594	17.6658
198.486	22.9963
201.379	11.4021
204.272	11.0496
207.164	14.1538
210.057	1.28906
212.95	25.7314
215.843	27.9883
218.735	50.5659
221.628	59.4104
224.521	52.2847
227.413	39.4451
230.306	23.1775
233.199	11.7244
236.091	22.2436
238.984	15.2556
241.877	8.74316
244.769	9.73828
247.662	0.354736
250.555	13.6055
253.448	6.05835
256.34	10.0032
259.233	28.5276
262.126	30.5537
265.018	12.0886
267.911	20.4236
270.804	29.1284
273.697	31.3735
276.589	22.75
279.482	28.4392
282.375	26.7524
285.267	24.2864
288.16	7.38037
291.053	11.4651
293.945	16.4111
296.838	25.1885
299.731	19.3374
302.623	38.6753
305.516	21.9143
308.409	19.6543
311.302	28.4993
314.194	24.5503
317.087	40.2578
319.98	31.8113
322.872	31.8184
325.765	41.3977
328.658	18.2627
331.55	44.5562
334.443	25.447
337.336	46.6624
340.229	52.0627
343.121	41.8223
346.014	34.2983
348.907	39.7727
351.799	24.0503
354.692	30.7739
357.585	18.2082
360.478	16.2852
363.37	20.2693
366.263	20.3294
369.156	8.34253
372.048	22.1519
374.941	13.7322
377.834	14.1438
380.726	0.743164
383.619	9.34741
386.512	0.728516
389.404	5.71997
392.297	15.853
395.19	4.28662
398.083	5.35938
400.975	6.78076
403.868	1.72217
406.761	3.31274
409.653	1.90845
412.546	20.6965
415.439	15.3049
418.332	9.90454
421.224	13.3123
424.117	19.9851
427.01	26.1765
429.902	56.0586
432.795	49.4075
435.688	34.7991
438.58	49.7427
441.473	49.2876
444.366	32.384
447.259	32.6047
450.151	20.2256
453.044	24.0366
455.937	10.3704
458.829	28.3091
461.722	15.6414
464.615	3.55029
467.507	11.4441
470.4	17.0818
473.293	5.99805
476.185	22.3689
479.078	0.145508
481.971	20.1084
484.864	26.6223
487.756	36.7122
490.649	56.459
493.542	68.303
496.434	81.0356
499.327	114.62
502.22	114.439
505.113	111.378
508.005	108.015
510.898	99.2788
513.791	59.1909
516.683	36.7688
519.576	28.509
522.469	24.1191
525.361	27.8928
528.254	26.6404
531.147	20.9209
534.04	26.8264
536.932	13.2056
539.825	2.11987
542.718	7.95923
545.61	3.37866
548.503	5.20361
551.396	1.93311
554.288	12.4541
557.181	17.3291
560.074	28.2375
562.967	20.2214
565.859	45.1636
568.752	35.7075
571.645	27.6321
574.537	28.2568
577.43	32.4268
580.323	40.7764
583.216	39.9255
586.108	41.4209
589.001	42.1001
591.894	34.3298
594.786	37.844
597.679	35.0344
600.572	24.1787
603.464	26.1672
606.357	21.3367
609.25	21.3616
612.142	17.9265
615.035	24.3008
617.928	16.967
620.821	23.1914
623.713	2.3313
626.606	0.100586
629.499	2.86401
632.391	5.21802
635.284	4.72046
638.177	9.89502
641.069	1.06494
643.962	3.79272
646.855	2.74292
649.747	0.335205
652.64	9.65601
655.533	10.8943
658.426	16.0789
661.318	30.4194
664.211	20.4976
667.104	12.1982
669.996	13.0464
672.889	10.3816
675.782	16.9168
678.674	30.251
681.567	32.7751
684.46	27.8669
687.353	22.3384
690.245	26.6973
693.138	28.3325
696.031	24.833
698.923	26.8289
701.816	18.3838
704.709	8.94287
707.601	28.3181
710.494	23.3523
713.387	21.6282
716.28	19.6755
719.172	17.8005
722.065	13.5139
724.958	23.2166
727.85	42.281
730.743	32.9692
733.636	36.3648
736.529	33.2315
739.421	14.866
742.314	16.1228
745.207	14.4219
748.099	13.1174
750.992	24.6775
753.885	33.3984
756.777	26.5364
759.67	24.4934
762.563	11.6724
765.456	7.79492
768.348	5.76856
771.241	24.9854
774.134	9.16357
777.026	15.1528
779.919	14.8879
782.812	6.62964
785.704	1.83716
788.597	1.33057
791.49	0.653564
794.383	19.9268
797.275	12.7856
800.168	3.36011
803.061	12.2549
805.953	12.8213
808.846	26.6685
811.739	7.58716
814.631	23.3635
817.524	13.9473
820.417	3.90918
823.309	7.14136
826.202	7.77856
829.095	17.1604
831.988	10.8123
834.88	20.7661
837.773	21.7209
840.666	16.5823
843.558	3.25049
846.451	21.7532
849.344	17.0935
852.236	24.6118
855.129	35.0855
858.022	43.9639
860.915	37.4751
863.807	53.1648
866.7	49.7849
869.593	61.8618
872.485	55.2131
875.378	48.9744
878.271	34.3547
881.163	24.7156
884.056	25.1484
886.949	23.9497
889.842	36.0093
892.734	41.2837
895.627	40.4087
898.52	74.3813
901.412	140.554
904.305	182.539
907.198	263.226
910.091	292.91
912.983	233.903
915.876	145.087
918.769	108.515
921.661	47.3728
924.554	31.5974
927.447	32.4905
930.339	31.405
933.232	8.61182
936.125	7.46704
939.018	4.88843
941.91	1.34936
944.803	3.51904
947.696	1.15015
950.588	9.302
953.481	22.8137
956.374	4.88403
959.266	0.065674
962.159	1.90894
965.052	0.449951
967.944	12.1677
970.837	21.8254
973.73	2.02246
976.623	11.6179
979.515	15.5344
982.408	12.3677
985.301	14.3943
988.193	2.77197
991.086	16.9856
993.979	9.58203
996.871	7.47803
999.764	13.2869
1002.66	7.0813
1005.55	2.87866
1008.44	0.602295
1011.34	2.59009
1014.23	9.04614
1017.12	6.71387
1020.01	0.727783
1022.91	24.1433
1025.8	5.37012
1028.69	17.8914
1031.58	8.33618
1034.48	25.7461
1037.37	36.8928
1040.26	31.8279
1043.15	14.2861
1046.05	35.6187
1048.94	44.6482
1051.83	42.927
1054.73	47.2297
1057.62	31.6733
1060.51	36.313
1063.4	29.614
1066.3	24.728
1069.19	24.0496
1072.08	31.3613
1074.97	21.5581
1077.87	21.4138
1080.76	28.0461
1083.65	39.6768
1086.55	25.9622
1089.44	32.0591
1092.33	21.5764
1095.22	35.5779
1098.12	43.0684
1101.01	23.0049
1103.9	24.4983
1106.79	28.1575
1109.69	17.8176
1112.58	33.8616
1115.47	39.0852
1118.37	46.8037
1121.26	23.333
1124.15	29.9041
1127.04	34.4294
1129.94	24.0059
1132.83	12.0032
1135.72	19.3252
1138.61	30.6314
1141.51	22.5256
1144.4	24.3384
1147.29	12.4067
1150.18	24.5684
1153.08	11.5979
1155.97	11.2197
1158.86	7.24707
1161.76	7.4729
1164.65	16.0466
1167.54	21.895
1170.43	17.731
1173.33	8.79199
1176.22	15.2822
1179.11	13.6685
1182	8.1333
1184.9	24.8992
1187.79	22.8682
1190.68	17.1335
1193.58	9.23071
1196.47	3.36035
1199.36	24.0574
1202.25	14.5146
1205.15	30.5554
1208.04	60.0425
1210.93	64.4941
1213.82	68.1765
1216.72	66.4141
1219.61	38.8589
1222.5	14.7468
1225.39	28.3896
1228.29	12.178
1231.18	12.1753
1234.07	1.79663
1236.97	9.72681
1239.86	2.17725
1242.75	14.5901
1245.64	19.6255
1248.54	15.9575
1251.43	11.2439
1254.32	11.6694
1257.21	27.8696
1260.11	16.5393
1263	23.1043
1265.89	25.5586
1268.79	12.5796
1271.68	22.6233
1274.57	5.04199
1277.46	7.48731
1280.36	4.13403
1283.25	11.3484
1286.14	18.4641
1289.03	0.881104
1291.93	4.80029
1294.82	28.804
1297.71	19.9841
1300.61	16.7307
