Measurement: Raman, 532 nm, unoriented, Raman Data Processed
Mineral: Weddellite
Rruff sample: R050242
Ideal chemistry: Ca(C_2_)^6+^O_4_2H_2_O
Locality: Biggs, Wasco County, Oregon, USA
Source: Marcus Origlieri
Description: Isolated yellowish brown crystal
Measured chemistry: Ca_1.00_(C_2_O_4_)Â·2H_2_O ; C not measured
Raman shift (cm-1)	intensity
231.149	0
234.042	11.8828
236.935	108.621
239.827	28.4375
242.72	48.7773
245.613	56.0371
248.506	47.6777
251.398	111.121
254.291	115.883
257.184	161.475
260.076	43.1016
262.969	32.8008
265.862	226.432
268.754	182.385
271.647	260.053
274.54	119.779
277.433	179.809
280.325	165.986
283.218	168.539
286.111	82.1387
289.003	136.016
291.896	121.852
294.789	96.4805
297.681	25.3262
300.574	184.935
303.467	32.2598
306.36	59.8789
309.252	118.4
312.145	95.8281
315.038	24.8555
317.93	146.268
320.823	198.068
323.716	62.498
326.608	45.7852
329.501	257.424
332.394	106.574
335.286	225.375
338.179	8.96094
341.072	107.281
343.965	370.816
346.857	322.578
349.75	267.402
352.643	18.4062
355.535	116.168
358.428	188.41
361.321	122.965
364.214	174.328
367.106	325.481
369.999	68.2461
372.892	39.4883
375.784	80.6836
378.677	104.137
381.57	207.5
384.462	280.019
387.355	105.621
390.248	38.9141
393.14	135.457
396.033	254.723
398.926	40.0938
401.819	83.7227
404.711	165.062
407.604	214.453
410.497	238.809
413.389	139.43
416.282	289.715
419.175	332.285
422.067	125.277
424.96	127.422
427.853	172.613
430.746	76.6797
433.638	266.273
436.531	48.6914
439.424	24.4336
442.316	228.609
445.209	11.2148
448.102	67.8984
450.994	129.461
453.887	14.1367
456.78	229.836
459.673	133.871
462.565	308.785
465.458	117.008
468.351	202.168
471.243	226.57
474.136	341.633
477.029	329.496
479.921	344.016
482.814	159.25
485.707	232.078
488.599	494.926
491.492	740.219
494.385	962.481
497.278	1165.81
500.17	1437.9
503.063	1718.6
505.956	1927.82
508.848	1649.46
511.741	1102.26
514.634	858.641
517.527	634.785
520.419	352.144
523.312	289.434
526.205	317.742
529.097	237.875
531.99	187.883
534.883	56.6016
537.775	228.969
540.668	218.816
543.561	9.84375
546.454	30.1172
549.346	56.3477
552.239	116.652
555.132	3.36719
558.024	16.9453
560.917	50.2266
563.81	41.4375
566.702	266.805
569.595	28.3984
572.488	85.6602
575.381	193.547
578.273	171.242
581.166	255.812
584.059	293.422
586.951	206.18
589.844	323.586
592.737	370.363
595.629	243.547
598.522	278.297
601.415	290.297
604.308	128.609
607.2	225.852
610.093	133.68
612.986	193.898
615.878	276.324
618.771	143.027
621.664	327.66
624.556	345.098
627.449	153.328
630.342	71.1602
633.235	221.191
636.127	178.121
639.02	101.488
641.913	253.621
644.805	114.762
647.698	339.027
650.591	183.496
653.483	104.281
656.376	34.332
659.269	34.6602
662.162	41.1094
665.054	27.9531
667.947	237.148
670.84	374.262
673.732	367.699
676.625	195.707
679.518	281.293
682.41	213.816
685.303	89.9062
688.196	28.9531
691.088	57.5273
693.981	119.094
696.874	69.4844
699.767	262.516
702.659	174.606
705.552	73.4961
708.445	209.277
711.337	50.0234
714.23	282.231
717.123	151.098
720.015	35.8203
722.908	34.1016
725.801	230.457
728.694	199.269
731.586	69.3164
734.479	31.6562
737.372	36.1953
740.264	91.6719
743.157	244.242
746.05	286.648
748.942	214.805
751.835	6.73047
754.728	51.7109
757.621	193.938
760.513	202.34
763.406	74.9062
766.299	210.465
769.191	104.203
772.084	117.438
774.977	162.371
777.87	137.801
780.762	50.9219
783.655	280.465
786.548	328.004
789.44	204.836
792.333	141.285
795.226	30.2812
798.118	164.059
801.011	102.148
803.904	169.867
806.796	85.5
809.689	136.481
812.582	7.42969
815.475	124.207
818.367	171.746
821.26	122.34
824.153	259.793
827.045	158.426
829.938	157.289
832.831	13.6992
835.723	38.7148
838.616	43.125
841.509	174.059
844.402	250.137
847.294	93.2773
850.187	23.8203
853.08	11.1094
855.972	49.9648
858.865	52.3828
861.758	176.441
864.65	245.918
867.543	280.594
870.436	207.023
873.329	121.246
876.221	201.856
879.114	108.269
882.007	0.769531
884.899	107.617
887.792	220.34
890.685	371.441
893.577	215.688
896.47	404.812
899.363	547.055
902.256	602.289
905.148	879.016
908.041	1260.92
910.934	1520.7
913.826	1365.72
916.719	929.481
919.612	609.027
922.505	349.289
925.397	324.16
928.29	404.18
931.183	131.574
934.075	129.746
936.968	168.195
939.861	171.703
942.753	389.902
945.646	381.117
948.539	326.262
951.432	151.098
954.324	94.5586
957.217	326.293
960.11	296.398
963.002	179.344
965.895	284.758
968.788	46.6484
971.68	134.644
974.573	91.4766
977.466	112.051
980.359	238.414
983.251	229.023
986.144	207.352
989.037	60.8047
991.929	165.941
994.822	57.582
997.715	165.969
1000.61	129.269
1003.5	127.375
1006.39	133.488
1009.28	116.148
1012.18	103.023
1015.07	165.336
1017.96	75.4805
1020.86	41.1328
1023.75	77.0781
1026.64	24.875
1029.53	166.59
1032.43	115.121
1035.32	70.6055
1038.21	195.723
1041.11	107.934
1044	291.516
1046.89	143.637
1049.78	68.543
1052.68	197.168
1055.57	288.977
1058.46	317.148
1061.35	241.215
1064.25	16.8516
1067.14	230.906
1070.03	224.894
1072.92	184.871
1075.82	187.324
1078.71	287.953
1081.6	114.371
1084.5	55.3047
1087.39	197.102
1090.28	167.328
1093.17	61.9297
1096.07	263.418
1098.96	94.2031
1101.85	61.9961
1104.74	41.2227
1107.64	66.1875
1110.53	164.004
1113.42	357.102
1116.32	213.481
1119.21	233.25
1122.1	225.598
1124.99	320.441
1127.89	118.535
1130.78	55.6094
1133.67	151.676
1136.56	143.691
1139.46	209.484
1142.35	53.5938
1145.24	193.219
1148.13	136.586
1151.03	130.824
1153.92	333.512
1156.81	218.461
1159.71	156.398
1162.6	170.402
1165.49	313.625
1168.38	350.414
1171.28	352.203
1174.17	412.438
1177.06	370.113
1179.95	158.883
1182.85	415.461
1185.74	213.523
1188.63	492.203
1191.53	494.371
1194.42	351.09
1197.31	279.391
1200.2	157.258
1203.1	306.363
1205.99	315.016
1208.88	479.996
1211.77	287.191
1214.67	413.652
1217.56	368.211
1220.45	420.863
1223.35	366.652
1226.24	513.391
1229.13	270.805
1232.02	373.109
1234.92	125.086
1237.81	78.5664
1240.7	1.23438
1243.59	51.0898
1246.49	248.367
1249.38	106.59
1252.27	405
1255.16	211.871
1258.06	283.242
1260.95	35.4492
1263.84	373.867
1266.74	111.699
1269.63	263.684
1272.52	202.219
1275.41	121.875
1278.31	167.918
1281.2	237.098
1284.09	56.0469
1286.98	69.9023
