Measurement: Raman, 532 nm, unoriented, Raman Data Processed
Mineral: Weeksite
Rruff sample: R050330
Ideal chemistry: K_2_(U^6+^O_2_)_2_(Si_5_O_13_)4H_2_O
Locality: Anderson mine, Yavapai County, Arizona, USA
Source: Lloyd Twaites
Description: Yellowish green flattened plates, associated with reddish-orange carnotite, R070647. Sample was used in the Fejfarova et al (2012) study.
Measured chemistry: (K_1.84_Ba_0.06_Ca_0.02_)_Σ=1.92_(U_1.00_O_2_)_2_(Si_5.00_O_13_)·1.2H_2_O
Raman shift (cm-1)	intensity
183.93	0
186.822	46.9141
189.715	223.527
192.608	166.004
195.5	241.559
198.393	295.352
201.286	406.633
204.179	254.418
207.071	387.746
209.964	375.371
212.857	529.359
215.749	168.043
218.642	467.984
221.535	284.707
224.428	280.965
227.32	601.785
230.213	352.125
233.106	395.316
235.998	351.91
238.891	510.484
241.784	524.246
244.676	382.777
247.569	342.723
250.462	450.215
253.355	495.035
256.247	481.883
259.14	292.75
262.033	310.93
264.925	290.152
267.818	298.773
270.711	356.074
273.603	242.219
276.496	237.344
279.389	204.09
282.281	162.09
285.174	272.125
288.067	360.473
290.959	468.578
293.852	362.859
296.745	196.766
299.638	382.019
302.53	243.516
305.423	237.156
308.316	352.231
311.208	330.117
314.101	174.012
316.994	229.039
319.887	70.2188
322.779	13.25
325.672	225.648
328.565	219.211
331.457	143.289
334.35	151.727
337.243	0.976563
340.135	223.914
343.028	231.125
345.921	228.781
348.813	72.8516
351.706	264.344
354.599	261.18
357.492	131.93
360.384	150.453
363.277	161.93
366.17	177.617
369.062	65.4766
371.955	43.8125
374.848	323.406
377.74	118.477
380.633	33.1328
383.526	194.977
386.418	208.672
389.311	183.773
392.204	157.984
395.097	216.625
397.989	212.5
400.882	134.133
403.775	249.695
406.667	345.695
409.56	189.109
412.453	256.773
415.346	230.023
418.238	243.891
421.131	308.258
424.024	219.359
426.916	55
429.809	150.727
432.702	250.812
435.594	304.234
438.487	180.562
441.38	182.32
444.272	241.445
447.165	192.734
450.058	179.055
452.951	175.508
455.843	113.75
458.736	161.609
461.629	273.617
464.521	357.688
467.414	111.461
470.307	302.227
473.2	290.617
476.092	169.016
478.985	223.102
481.878	132.172
484.77	177.586
487.663	89.9766
490.556	152.969
493.448	57.4141
496.341	156.008
499.234	37.5625
502.127	33.625
505.019	114.5
507.912	187.602
510.805	42.2969
513.697	420.5
516.59	66.3359
519.483	249.625
522.375	246.227
525.268	152.977
528.161	224.992
531.053	101.062
533.946	71.1328
536.839	149.211
539.731	276.828
542.624	27.8047
545.517	105.648
548.41	125.414
551.302	140.32
554.195	67.3125
557.088	74.3984
559.98	63.9531
562.873	283.797
565.766	357.75
568.659	252.336
571.551	266.602
574.444	215.945
577.337	289.633
580.229	129.82
583.122	295.805
586.015	45.0312
588.907	111.844
591.8	189.859
594.693	94.0547
597.585	55.3438
600.478	114.781
603.371	313.086
606.264	126.727
609.156	298.344
612.049	169.781
614.942	514.203
617.834	243.82
620.727	180.422
623.62	266.469
626.513	508.398
629.405	316.328
632.298	327.273
635.191	458.023
638.083	326.539
640.976	519.102
643.869	607.07
646.761	468.789
649.654	966.273
652.547	397.508
655.439	859.836
658.332	639.055
661.225	499.844
664.117	632.375
667.01	448.594
669.903	599.672
672.796	412.148
675.688	537.805
678.581	413.344
681.474	298.438
684.366	384.625
687.259	196.984
690.152	13.2109
693.044	283.484
695.937	494.25
698.83	234.461
701.723	163.109
704.615	173.461
707.508	256.547
710.401	47.875
713.293	256.398
716.186	214.531
719.079	144.469
721.971	61.4141
724.864	222.609
727.757	232.953
730.649	57.9609
733.542	93.4297
736.435	34.5
739.328	3.60156
742.22	230.539
745.113	47.4609
748.006	288.258
750.898	127.344
753.791	85.2578
756.684	117.398
759.577	37.4297
762.469	126.758
765.362	176.641
768.255	22.0859
771.147	117.32
774.04	402
776.933	363.961
779.825	601.414
782.718	520.445
785.611	514.578
788.504	834.242
791.396	747.422
794.289	998.344
797.182	1205.4
800.074	1995.82
802.967	2259.55
805.86	2437.17
808.752	2570.03
811.645	2403.32
814.538	2074.86
817.431	1655.09
820.323	898.961
823.216	725.57
826.109	354.898
829.001	249.641
831.894	192.633
834.787	272.945
837.679	93.9609
840.572	119.852
843.465	31.2266
846.357	257.781
849.25	47.5859
852.143	134.07
855.036	9.00781
857.928	141.359
860.821	22.2734
863.714	115.375
866.606	40.4766
869.499	277.461
872.392	77.6641
875.284	122.125
878.177	76.6719
881.07	271.352
883.962	253.227
886.855	531.672
889.748	116.945
892.641	97.5547
895.533	3.03125
898.426	152.93
901.319	214.781
904.211	286.109
907.104	319.062
909.997	38.0625
912.889	294.938
915.782	236.727
918.675	262.164
921.568	473.578
924.46	203.398
927.353	252.82
930.246	303.875
933.138	280.07
936.031	601.328
938.924	352.305
941.817	596.273
944.709	604.805
947.602	641.367
950.495	532.523
953.387	245.32
956.28	349.547
959.173	351.266
962.065	160.516
964.958	327.227
967.851	364.547
970.744	186.023
973.636	312.266
976.529	282.062
979.422	188.742
982.314	110.445
985.207	1.04688
988.1	228.297
990.992	318.977
993.885	280.086
996.778	176.156
999.67	279.93
1002.56	166.68
1005.46	412.977
1008.35	546.07
1011.24	48.9688
1014.13	324.094
1017.03	343.336
1019.92	349.406
1022.81	22.8828
1025.7	254.773
1028.6	11.2656
1031.49	50.1953
1034.38	161.859
1037.28	76.4297
1040.17	45.125
1043.06	51.6406
1045.95	121.102
1048.85	46.7188
1051.74	77.2266
1054.63	31.4375
1057.52	239.898
1060.42	75.2969
1063.31	384.836
1066.2	183.836
1069.1	489.875
1071.99	103.727
1074.88	165.25
1077.77	146.594
1080.67	241.758
1083.56	238.008
1086.45	343.039
1089.34	377.867
1092.24	65.5469
1095.13	148.438
1098.02	35.3516
1100.91	56.9141
1103.81	297.234
1106.7	142.289
1109.59	252.062
1112.49	8.14844
1115.38	302.727
1118.27	160.438
1121.16	216.055
1124.06	358.469
1126.95	348.008
1129.84	75.0938
1132.73	317.102
1135.63	303.461
1138.52	227.773
1141.41	301.359
1144.31	222.992
1147.2	325.531
1150.09	337.688
1152.98	212.398
1155.88	149.602
1158.77	527.852
1161.66	386.617
1164.55	316.031
1167.45	0.492188
1170.34	325.18
1173.23	177.859
1176.12	190.836
1179.02	189.57
1181.91	23.6719
1184.8	249.656
1187.7	367.547
1190.59	180.992
1193.48	225.195
1196.37	451.609
1199.27	110.688
1202.16	147.656
1205.05	199.789
1207.94	3.88281
1210.84	404.742
1213.73	235.758
1216.62	58.2969
1219.52	181.523
1222.41	0.117188
1225.3	349.281
1228.19	139.906
1231.09	250.586
1233.98	148.688
1236.87	59.1406
1239.76	198.234
1242.66	277.047
1245.55	110.164
1248.44	281.891
1251.34	172.336
1254.23	266.68
1257.12	299.008
1260.01	159.75
1262.91	390.312
1265.8	414.422
1268.69	348
1271.58	50.9375
1274.48	194.68
1277.37	438.016
1280.26	101.977
1283.15	268.891
1286.05	212.078
1288.94	141.453
1291.83	96.9219
1294.73	25.8516
1297.62	368.75
1300.51	203.828
1303.4	262.578
1306.3	285.711
1309.19	49.9062
1312.08	31.5
1314.97	200.711
