Measurement: Raman, 785 nm, unoriented, Raman Data Processed
Mineral: Weeksite
Rruff sample: R050330
Ideal chemistry: K_2_(U^6+^O_2_)_2_(Si_5_O_13_)4H_2_O
Locality: Anderson mine, Yavapai County, Arizona, USA
Source: Lloyd Twaites
Description: Yellowish green flattened plates, associated with reddish-orange carnotite, R070647. Sample was used in the Fejfarova et al (2012) study.
Measured chemistry: (K_1.84_Ba_0.06_Ca_0.02_)_Σ=1.92_(U_1.00_O_2_)_2_(Si_5.00_O_13_)·1.2H_2_O
Raman shift (cm-1)	intensity
139.63	0
142.523	6.80591
145.416	149.749
148.308	411.078
151.201	619.798
154.094	627.393
156.986	568.534
159.879	514.543
162.772	570.07
165.665	705.881
168.557	791.47
171.45	872.153
174.343	787.875
177.235	762.994
180.128	792.963
183.021	807.806
185.913	886.135
188.806	987.835
191.699	1075.76
194.591	1199.61
197.484	1332.4
200.377	1497.41
203.27	1499.34
206.162	1442.6
209.055	1471.52
211.948	1266.04
214.84	1121.74
217.733	925.21
220.626	630.748
223.518	485.978
226.411	310.912
229.304	191.43
232.196	87.2739
235.089	11.3149
237.982	14.4468
240.875	24.5054
243.767	22.8604
246.66	47.8462
249.553	6.65674
252.445	46.6094
255.338	33.5859
258.231	135.172
261.123	149.123
264.016	256.442
266.909	282.408
269.802	253.517
272.694	211.912
275.587	185.323
278.48	122.188
281.372	154.269
284.265	226.262
287.158	268.193
290.05	359.521
292.943	443.792
295.836	456.818
298.729	506.546
301.621	525.125
304.514	513.149
307.407	369.026
310.299	337.49
313.192	222.357
316.085	172.714
318.978	169.178
321.87	223.107
324.763	302.834
327.656	392.623
330.548	596.725
333.441	800.814
336.334	857.252
339.226	844.915
342.119	918.267
345.012	1021.55
347.904	1057.24
350.797	977.854
353.69	876.565
356.583	656.324
359.475	482.96
362.368	342.085
365.261	269.715
368.153	100.874
371.046	135.545
373.939	115.283
376.832	98.7886
379.724	47.0999
382.617	20.6699
385.51	20.906
388.402	53.8706
391.295	11.835
394.188	6.07764
397.08	6.27319
399.973	51.7544
402.866	18.1199
405.759	64.0767
408.651	7.96045
411.544	0.47168
414.437	30.0713
417.329	44.1519
420.222	42.0447
423.115	29.4692
426.007	61.4653
428.9	38.0024
431.793	25.877
434.685	88.8423
437.578	11.626
440.471	85.8718
443.364	50.8169
446.256	66.8931
449.149	3.95019
452.042	26.7773
454.934	19.2459
457.827	36.1977
460.72	21.813
463.613	93.9976
466.505	151.618
469.398	217.566
472.291	271.098
475.183	330.304
478.076	288.854
480.969	307.905
483.861	163.915
486.754	152.375
489.647	135.288
492.539	121.777
495.432	55.4143
498.325	37.9202
501.218	9.06128
504.11	46.5649
507.003	18.6333
509.896	89.1775
512.788	80.5456
515.681	107.966
518.574	142.121
521.466	205.167
524.359	111.017
527.252	46.6794
530.145	65.3731
533.037	90.7207
535.93	7.60132
538.823	63.8796
541.715	10.9915
544.608	48.1135
547.501	69.0654
550.394	89.9741
553.286	210.579
556.179	308.673
559.072	381.046
561.964	601.574
564.857	703.471
567.75	893.102
570.642	986.086
573.535	928.463
576.428	942.372
579.321	774.054
582.213	625.918
585.106	508.124
587.999	343.019
590.891	260.853
593.784	192.76
596.677	139.973
599.569	110.927
602.462	89.8857
605.355	78.1401
608.247	33.7224
611.14	64.032
614.033	56.0254
616.926	40.9546
619.818	56.3147
622.711	61.6982
625.604	18.5903
628.496	31.9873
631.389	10.5889
634.282	37.3603
637.174	0.377686
640.067	7.78906
642.96	18.7153
645.853	36.5566
648.745	10.1148
651.638	37.1125
654.531	29.8308
657.423	42.8254
660.316	12.2969
663.209	35.2383
666.101	13.8774
668.994	3.73901
671.887	5.22436
674.779	1.63574
677.672	53.584
680.565	5.7312
683.458	26.8237
686.35	27.7334
689.243	2.82935
692.136	22.0981
695.028	7.5459
697.921	20.2275
700.814	18.4592
703.707	13.9565
706.599	12.7556
709.492	3.27148
712.385	9.29004
715.277	16.833
718.17	55.9185
721.063	150.247
723.955	163.233
726.848	275.903
729.741	309.081
732.634	443.053
735.526	584.993
738.419	690.099
741.312	734.592
744.204	790.479
747.097	795.596
749.99	743.986
752.882	743.66
755.775	610.43
758.668	652.091
761.561	681.54
764.453	793.499
767.346	939.004
770.239	1189.25
773.131	1394.47
776.024	1674.9
778.917	2039.8
781.809	2575.59
784.702	3129.93
787.595	3788.19
790.487	4584.47
793.38	5583.83
796.273	6818.91
799.166	8347.37
802.058	10235.8
804.951	12046.9
807.844	13592.4
810.736	13974.5
813.629	12292
816.522	9157.44
819.415	6065.59
822.307	3913.05
825.2	2558.1
828.093	1718.1
830.985	1200.44
833.878	826.579
836.771	549.706
839.663	356.06
842.556	213.945
845.449	116.36
848.342	38.9014
851.234	19.051
854.127	9.1106
857.02	34.0542
859.912	17.7617
862.805	20.1675
865.698	14.9937
868.591	33.1929
871.483	36.1658
874.376	39.6738
877.269	12.6003
880.161	19.4907
883.054	41.7703
885.947	60.5469
888.839	9.00342
891.732	39.718
894.625	28.6018
897.518	60.2678
900.41	92.1267
903.303	90.178
906.196	206.69
909.088	222.642
911.981	289.358
914.874	445.022
917.766	526.831
920.659	712.111
923.552	897.35
926.444	1190.68
929.337	1469.51
932.23	1786.67
935.122	2048.33
938.015	2154.48
940.908	2002.47
943.801	1817.19
946.693	1574.31
949.586	1282.4
952.479	1052.38
955.371	883.415
958.264	685.058
961.157	598.226
964.049	416.444
966.942	410.087
969.835	284.135
972.728	292.528
975.62	247.683
978.513	252.982
981.406	250.432
984.298	275.858
987.191	345.44
990.084	465.11
992.976	627.379
995.869	869.755
998.762	1114.47
1001.65	1384.47
1004.55	1609.53
1007.44	1785.06
1010.33	1693.22
1013.23	1526.59
1016.12	1139.68
1019.01	867.439
1021.9	640.016
1024.8	504.577
1027.69	349.307
1030.58	227.257
1033.47	201.463
1036.37	155.789
1039.26	121.404
1042.15	68.82
1045.05	66.1483
1047.94	44.312
1050.83	10.6576
1053.72	42.5875
1056.62	19.057
1059.51	10.3276
1062.4	25.0509
1065.29	30.9047
1068.19	8.95398
1071.08	40.8575
1073.97	23.5586
1076.87	30.3739
1079.76	38.9594
1082.65	19.9866
1085.54	33.262
1088.44	45.5924
1091.33	67.0002
1094.22	59.1753
1097.11	64.5844
1100.01	88.2978
1102.9	78.0845
1105.79	106.431
1108.68	127.146
1111.58	151.993
1114.47	117.639
1117.36	131.008
1120.26	165.699
1123.15	153.5
1126.04	207.489
1128.93	221.811
1131.83	227.441
1134.72	224.643
1137.61	224.265
1140.5	255.7
1143.4	206.487
1146.29	245.152
1149.18	310.001
1152.08	330.611
1154.97	362.449
1157.86	392.012
1160.75	395.633
1163.65	330.475
1166.54	328.317
1169.43	240.338
1172.32	231.444
1175.22	157.265
1178.11	153.888
1181	88.2443
1183.89	89.0908
1186.79	61.4968
1189.68	101.772
1192.57	59.6841
1195.46	61.7992
1198.36	34.021
1201.25	34.2972
1204.14	20.9868
1207.04	6.1803
1209.93	29.8643
1212.82	56.2249
1215.71	6.56299
1218.61	19.8633
1221.5	74.4011
1224.39	55.9612
1227.29	24.8844
1230.18	35.9918
1233.07	47.1148
1235.96	23.7859
1238.86	26.3013
1241.75	14.4945
