Measurement: Raman, 532 nm, unoriented, Raman Data Processed
Mineral: Wesselsite
Rruff sample: R120019
Ideal chemistry: SrCu^2+^Si_4_O_10_
Locality: Wessels mine, Kalahari manganese field, Northern Cape Province, South Africa
Source: William W. Pinch
Description: Dark blue massive, associated with R120057 lavinskyite and R120077 scottyite
Measured chemistry: (Sr_0.98_Ba_0.04_)_Î£=1.02_Cu_1.05_Si_3.97_O_10_ ; (wesselsite is medium gray material in image, associated with samples R120057 new plancheite-like mineral, dark grey; and R120077 new mineral, light grey)
Raman shift (cm-1)	intensity
177.273	0
180.166	12.3721
183.059	6.80566
185.951	28.1826
188.844	47.1885
191.737	59.3721
194.629	42.8594
197.522	39.4629
200.415	17.7939
203.308	8.57812
206.2	64.1103
209.093	29.459
211.986	15.2334
214.878	12.71
217.771	44.8506
220.664	74.2871
223.556	86.4062
226.449	9.7832
229.342	18.6338
232.234	0.444336
235.127	17.123
238.02	50.2109
240.913	28.7002
243.805	37.5645
246.698	64.0186
249.591	117.941
252.483	98.084
255.376	97.4873
258.269	117.535
261.161	111.728
264.054	88.8477
266.947	92.0527
269.84	90.3027
272.732	136.624
275.625	141.012
278.518	134.372
281.41	126.618
284.303	84.0938
287.196	56.0034
290.089	65.5625
292.981	78.0933
295.874	71.6226
298.767	97.0171
301.659	98.2041
304.552	68.8428
307.445	77.4878
310.337	74.7207
313.23	80.4009
316.123	92.4673
319.015	57.7251
321.908	45.6685
324.801	35.269
327.694	34.4609
330.586	18.6221
333.479	29.6787
336.372	65.3999
339.264	50.1533
342.157	18.3335
345.05	18.3809
347.942	8.12256
350.835	7.4624
353.728	4.44971
356.621	41.5371
359.513	55.7495
362.406	33.7769
365.299	48.1489
368.191	96.8892
371.084	129.251
373.977	179.075
376.87	225.246
379.762	213.598
382.655	180.527
385.548	93.8433
388.44	20.8408
391.333	5.66406
394.226	10.4873
397.118	10.8374
400.011	7.64111
402.904	9.68018
405.796	58.1611
408.689	93.4263
411.582	210.434
414.475	374.206
417.367	567.411
420.26	848.855
423.153	1258.08
426.045	1601.28
428.938	1462.73
431.831	924.511
434.724	532.856
437.616	335.419
440.509	270.647
443.402	246.85
446.294	264.09
449.187	276.43
452.08	248.083
454.972	216.702
457.865	200.136
460.758	177.396
463.651	166.199
466.543	115.165
469.436	88.355
472.329	69.8218
475.221	45.8267
478.114	31.4453
481.007	33.3672
483.899	9.36279
486.792	6.65674
489.685	2.96387
492.577	9.93994
495.47	19.0415
498.363	44.8213
501.256	26.1221
504.148	7.5542
507.041	21.1099
509.934	2.07617
512.826	5.88574
515.719	4.71387
518.612	1.8374
521.505	22.3579
524.397	15.6484
527.29	31.415
530.183	39.3242
533.075	8.72461
535.968	14.5918
538.861	19.29
541.753	38.292
544.646	47.5815
547.539	81.8867
550.432	112.589
553.324	133.405
556.217	170.337
559.11	207.372
562.002	246.01
564.895	194.465
567.788	129.028
570.68	88.96
573.573	37.6953
576.466	49.502
579.359	52.2134
582.251	86.3579
585.144	46.1177
588.037	78.978
590.929	41.3931
593.822	53.2544
596.715	33.3838
599.607	23.3613
602.5	15.6592
605.393	12.918
608.285	16.354
611.178	28.3799
614.071	20.7954
616.964	21.4331
619.856	13.1733
622.749	14.0825
625.642	5.85791
628.534	3.35547
631.427	13.8467
634.32	17.6309
637.212	49.6875
640.105	13.6352
642.998	9.50635
645.891	6.76514
648.783	1.6416
651.676	13.0151
654.569	28.9121
657.461	33.2017
660.354	39.3032
663.247	26.9019
666.139	17.4561
669.032	12.5786
671.925	1.84863
674.818	6.79346
677.71	17.252
680.603	42.7417
683.496	40.019
686.388	37.7632
689.281	39.5503
692.174	43.3579
695.067	51.5693
697.959	41.5425
700.852	44.6699
703.745	40.2427
706.637	26.9609
709.53	29.1226
712.423	24.106
715.315	29.3184
718.208	4.28662
721.101	6.14209
723.994	4.6333
726.886	17.0664
729.779	51.4033
732.672	20.5561
735.564	39.5161
738.457	5.26074
741.35	2.96631
744.242	8.15869
747.135	6.72168
750.028	33.4351
752.92	77.0102
755.813	85.2183
758.706	90.7519
761.599	56.2544
764.491	31.6538
767.384	51.2915
770.277	69.2803
773.169	58.959
776.062	57.4956
778.955	64.6602
781.847	68.915
784.74	83.6724
787.633	94.3648
790.526	124.898
793.418	114.193
796.311	45.1699
799.204	38.5068
802.096	9.26855
804.989	1.11182
807.882	2.76221
810.774	11.6968
813.667	27.1528
816.56	40.7266
819.453	38.7324
822.345	33.1714
825.238	7.83398
828.131	9.0415
831.023	17
833.916	4.33789
836.809	0.138672
839.702	13.5884
842.594	25.7192
845.487	31.0132
848.38	24.9477
851.272	30.1777
854.165	48.4668
857.058	46.627
859.95	75.8931
862.843	63.543
865.736	65.8789
868.629	60.5654
871.521	65.7495
874.414	65.2485
877.307	52.792
880.199	31.5283
883.092	41.1997
885.985	53.3115
888.877	61.3428
891.77	50.4145
894.663	32.2178
897.556	23.2139
900.448	24.6953
903.341	11.3174
906.234	44.084
909.126	29.4639
912.019	49.833
914.912	46.1592
917.804	42.4966
920.697	21.8706
923.59	22.6289
926.482	25.5342
929.375	0.841309
932.268	12.7495
935.161	4.13477
938.053	6.35596
940.946	8.81152
943.839	22.3325
946.731	40.7983
949.624	26.3623
952.517	40.2539
955.409	29.4292
958.302	33.1621
961.195	66.9526
964.088	96.6426
966.98	135.425
969.873	129.791
972.766	113.043
975.658	89.6323
978.551	98.3574
981.444	100.716
984.337	107.845
987.229	115.781
990.122	152.54
993.015	143.014
995.907	86.7827
998.8	58.7339
1001.69	37.4028
1004.59	37.3633
1007.48	40.2671
1010.37	47.04
1013.26	11.8989
1016.16	7.13379
1019.05	4.92236
1021.94	12.2935
1024.83	1.07861
1027.73	2.49365
1030.62	11.8511
1033.51	7.7085
1036.4	17.7632
1039.3	17.5176
1042.19	6.93018
1045.08	24.0176
1047.98	38.3682
1050.87	18.5981
1053.76	12.8828
1056.65	28.6724
1059.55	48.6065
1062.44	70.9204
1065.33	57.5732
1068.22	92.1802
1071.12	97.0879
1074.01	109.489
1076.9	135.856
1079.8	161.622
1082.69	213.962
1085.58	345.748
1088.47	481.013
1091.37	588.27
1094.26	644.721
1097.15	564.72
1100.04	435.768
1102.94	286.608
1105.83	221.762
1108.72	153.767
1111.62	124.02
1114.51	94.626
1117.4	87.5654
1120.29	92.6465
1123.19	68.8848
1126.08	58.5874
1128.97	55.5181
1131.86	41.1582
1134.76	66.8003
1137.65	93.3979
1140.54	92.0532
1143.43	56.8154
1146.33	39.1831
1149.22	51.9937
1152.11	56.0044
1155.01	59.7988
1157.9	39.0049
1160.79	38.6641
1163.68	35.6128
1166.58	33.2681
1169.47	26.1328
1172.36	25.5283
1175.26	43.7539
1178.15	47.1025
1181.04	38.2983
1183.93	49.8032
1186.83	50.3535
1189.72	61.5864
1192.61	53.564
1195.5	39.6719
1198.4	22.6689
1201.29	6.60498
1204.18	4.86963
1207.07	13.2095
1209.97	21.4907
1212.86	53.4346
1215.75	9.49365
1218.64	6.54639
1221.54	2.5581
1224.43	3.44336
1227.32	11.5376
1230.22	18.9951
1233.11	4.0415
1236	19.3398
1238.89	8.79639
1241.79	11.6548
1244.68	20.3809
1247.57	38.2256
1250.46	33.9937
1253.36	33.4927
1256.25	70.3501
1259.14	80.0166
1262.04	92.1079
1264.93	88.2583
1267.82	70.3569
1270.71	60.6753
1273.61	56.8315
1276.5	73.9639
1279.39	67.9419
1282.29	58.5845
1285.18	36.2822
1288.07	18.666
1290.96	15.6172
1293.86	9.86084
1296.75	20.0039
1299.64	13.085
1302.53	5.9165
