Measurement: Raman, 532 nm, unoriented, Raman Data Processed
Mineral: Westerveldite
Rruff sample: R060507
Ideal chemistry: FeAs
Locality: Kvanefjeld, Ilimaussaq, Greenland
Source: Michael Scott
Description: Metallic silver massive, associated with elongated dark-green diopside.
Raman shift (cm-1)	intensity
182.35	0
185.242	3.53095
188.135	11.2696
191.028	5.75012
193.92	2.96185
196.813	0.00824
199.706	1.90228
202.599	0.272858
205.491	4.30853
208.384	2.22406
211.277	5.21634
214.169	1.15582
217.062	1.03116
219.955	6.03259
222.847	12.5807
225.74	17.1038
228.633	21.8057
231.525	32.1101
234.418	52.7131
237.311	55.0844
240.204	73.733
243.096	43.3829
245.989	11.0801
248.882	13.094
251.774	12.465
254.667	17.1037
257.56	20.7539
260.452	29.6184
263.345	44.2441
266.238	57.4053
269.131	77.991
272.023	32.9666
274.916	14.7274
277.809	12.0394
280.701	5.34921
283.594	8.52154
286.487	6.38
289.38	4.89505
292.272	9.74185
295.165	5.61447
298.058	8.21786
300.95	7.06302
303.843	4.19623
306.736	3.1734
309.628	3.52185
312.521	3.45291
315.414	4.12265
318.307	6.49991
321.199	6.79904
324.092	2.66263
326.985	6.96274
329.877	5.09503
332.77	10.8818
335.663	9.89493
338.555	7.95984
341.448	7.29141
344.341	11.3363
347.233	10.7544
350.126	8.88028
353.019	7.43982
355.912	1.53058
358.804	3.98645
361.697	4.2966
364.59	6.19968
367.482	5.94116
370.375	7.90881
373.268	5.91364
376.161	3.75879
379.053	7.63049
381.946	0.423752
384.839	0.829819
387.731	1.29304
390.624	1.7616
393.517	0.358002
396.409	6.20807
399.302	2.84494
402.195	5.45799
405.087	4.55824
407.98	0.193954
410.873	0.270599
413.766	0.120636
416.658	1.20229
419.551	1.52649
422.444	2.34882
425.336	0.808807
428.229	5.46333
431.122	2.85583
434.014	1.14403
436.907	1.6273
439.8	2.40021
442.693	0.955902
445.585	2.5648
448.478	6.79263
451.371	6.26942
454.263	2.38841
457.156	3.47932
460.049	7.66716
462.942	3.11366
465.834	8.74199
468.727	9.72324
471.62	4.75667
474.512	8.0757
477.405	6.54384
480.298	11.2933
483.19	8.28458
486.083	12.7442
488.976	10.0273
491.868	9.25902
494.761	6.80994
497.654	6.35063
500.547	4.34528
503.439	6.03563
506.332	5.00725
509.225	4.70134
512.117	5.45769
515.01	4.93692
517.903	4.56706
520.795	0.194366
523.688	2.30389
526.581	4.89394
529.474	1.80893
532.366	3.99008
535.259	4.30144
538.152	5.3871
541.044	8.08205
543.937	7.8597
546.83	2.75363
549.722	6.29973
552.615	5.72801
555.508	6.12093
558.401	7.19768
561.293	9.29219
564.186	4.50836
567.079	9.69615
569.971	2.04236
572.864	9.11951
575.757	8.70737
578.649	10.4813
581.542	1.01154
584.435	6.36877
587.328	5.74844
590.22	6.33784
593.113	5.21179
596.006	4.84088
598.898	3.87004
601.791	10.9149
604.684	1.45845
607.577	1.53055
610.469	2.19507
613.362	4.07663
616.255	5.47775
619.147	0.720703
622.04	1.75386
624.933	2.51955
627.825	5.27203
630.718	3.42752
633.611	2.71751
636.504	2.96919
639.396	8.55083
642.289	5.52743
645.182	7.18942
648.074	7.37935
650.967	6.81383
653.86	10.9053
656.752	12.5164
659.645	10.2707
662.538	8.27274
665.431	11.0243
668.323	10.1085
671.216	10.3166
674.109	11.6805
677.001	9.08499
679.894	10.1387
682.787	7.12758
685.679	4.5761
688.572	1.11323
691.465	2.07745
694.357	2.63637
697.25	2.35797
700.143	2.00736
703.036	0.630188
705.928	0.487549
708.821	2.01718
711.714	3.42212
714.606	1.3761
717.499	0.412811
720.392	0.81012
723.284	6.66437
726.177	0.582489
729.07	3.98877
731.963	2.20334
734.855	0.395844
737.748	2.08585
740.641	0.645172
743.533	3.11606
746.426	7.37213
749.319	4.46191
752.212	7.70889
755.104	8.53964
757.997	8.46185
760.89	4.70218
763.782	8.94278
766.675	8.21268
769.568	7.59839
772.46	7.59906
775.353	10.1191
778.246	7.2131
781.139	11.9188
784.031	13.2473
786.924	14.4706
789.817	22.0992
792.709	26.8033
795.602	18.3531
798.495	26.0871
801.388	26.8825
804.28	31.2552
807.173	32.9962
810.066	36.0656
812.958	38.244
815.851	42.6207
818.744	46.7779
821.636	49.8021
824.529	44.1504
827.422	46.5313
830.314	53.9805
833.207	49.0905
836.1	58.8914
838.993	62.6329
841.885	62.1746
844.778	62.8556
847.671	65.6784
850.563	68.7532
853.456	69.6334
856.349	69.3076
859.241	70.1804
862.134	67.8199
865.027	70.7599
867.92	60.6951
870.812	63.3045
873.705	61.5355
876.598	51.7498
879.49	51.9931
882.383	41.7013
885.276	39.7068
888.168	31.1348
891.061	28.5612
893.954	26.5558
896.847	23.0338
899.739	11.7199
902.632	14.8385
905.525	4.95506
908.417	3.78032
911.31	0.881363
914.203	2.55586
917.096	0.685608
919.988	2.4523
922.881	2.24635
925.774	5.19766
928.666	0.429001
931.559	3.66792
934.452	2.91243
937.344	5.03476
940.237	0.482071
943.13	0.500504
946.023	2.75018
948.915	0.91507
951.808	5.85019
954.701	9.12367
957.593	8.37648
960.486	6.77132
963.379	3.68424
966.271	6.44118
969.164	11.6763
972.057	11.6909
974.949	8.59253
977.842	13.8524
980.735	9.02313
983.628	9.39369
986.52	6.071
989.413	8.90871
992.306	2.42924
995.198	12.873
998.091	8.26228
1000.98	9.97597
1003.88	12.2558
1006.77	10.131
1009.66	10.7004
1012.55	13.5694
1015.45	13.8216
1018.34	10.534
1021.23	7.06583
1024.12	12.7314
1027.02	14.3108
1029.91	16.2907
1032.8	21.9474
1035.7	23.8723
1038.59	28.2544
1041.48	23.1385
1044.37	26.6215
1047.27	25.9251
1050.16	22.9609
1053.05	19.2566
1055.94	18.7239
1058.84	13.7392
1061.73	11.2222
1064.62	11.132
1067.52	8.0511
1070.41	6.63409
1073.3	5.85664
1076.19	4.21565
1079.09	3.10408
1081.98	2.60629
1084.87	3.53335
1087.77	3.22273
1090.66	4.13757
1093.55	8.22884
1096.44	4.55508
1099.34	4.33009
1102.23	5.03487
1105.12	8.31762
1108.01	0.907356
1110.91	2.00162
1113.8	3.20298
1116.69	0.131859
1119.58	4.18115
1122.48	2.4248
1125.37	5.25269
1128.26	2.65257
1131.15	2.57826
1134.05	0.247231
1136.94	1.36506
1139.83	1.29083
1142.73	0.430885
1145.62	0.51754
1148.51	2.87924
1151.4	0.953201
1154.3	3.23751
1157.19	1.91158
1160.08	4.73563
1162.97	5.61815
1165.87	1.298
1168.76	1.89605
1171.65	0.955742
1174.55	4.69863
1177.44	3.50306
1180.33	6.46307
1183.22	6.68731
1186.12	5.15599
1189.01	4.85456
1191.9	3.4201
1194.8	3.00275
1197.69	4.97664
1200.58	9.80714
1203.47	2.56059
1206.37	6.07197
1209.26	9.22909
1212.15	7.42554
1215.04	9.8175
1217.94	3.23805
1220.83	2.89293
1223.72	5.00788
1226.61	4.62352
1229.51	2.96964
1232.4	4.00424
1235.29	7.20808
1238.18	4.83235
1241.08	7.62084
1243.97	2.50934
1246.86	3.25754
1249.76	4.12046
1252.65	0.308037
1255.54	3.99262
1258.43	5.56489
1261.33	0.404305
1264.22	2.31351
1267.11	5.5673
1270.01	6.12347
1272.9	0.615013
1275.79	8.61134
1278.68	0.798561
1281.58	2.05239
1284.47	6.63238
1287.36	3.37911
1290.25	3.7449
1293.15	8.19968
1296.04	8.20067
1298.93	0.791977
1301.83	0
