Measurement: Raman, 780 nm, unoriented, Raman Data Processed
Mineral: Whelanite
Rruff sample: R050323
Ideal chemistry: Cu^2+^_2_Ca_6_[Si_6_O_17_(OH)](CO_3_)(OH)_3_2H_2_O
Locality: Christmas mine, Christmas, Gila County, Arizona, USA
Source: Marcus Origlieri
Description: Light-blue thin, flat bladed fibers associated with colorless hydroxyapophyllite, blue kinoite, and light yellow andradite.
Raman shift (cm-1)	intensity
113.255	0.160652
116.63	1.93575
120.005	0.031593
123.38	1.03032
126.754	1.95052
130.129	5.56593
133.504	5.21584
136.879	9.02773
140.254	16.3914
143.629	14.1482
147.003	17.4675
150.378	14.0406
153.753	10.8664
157.128	8.20582
160.503	7.29268
163.877	8.09351
167.252	5.77257
170.627	5.232
174.002	5.58686
177.377	6.17566
180.751	6.28735
184.126	6.78007
187.501	7.53262
190.876	7.16632
194.251	6.03373
197.625	5.31288
201	4.50777
204.375	3.40146
207.75	1.36084
211.125	0.402355
214.5	0.589954
217.874	0.514694
221.249	0.140949
224.624	1.74679
227.999	0.519356
231.374	1.13575
234.749	2.34486
238.123	3.03202
241.498	2.53606
244.873	3.37743
248.248	3.90132
251.623	4.80231
254.997	5.41965
258.372	5.51841
261.747	4.72668
265.122	6.46145
268.497	6.28816
271.872	7.37564
275.246	8.1945
278.621	9.19905
281.996	9.15575
285.371	10.5291
288.745	9.75412
292.12	8.58948
295.495	9.02701
298.87	7.9574
302.245	7.37124
305.62	6.37689
308.994	5.14672
312.369	4.0805
315.744	3.62404
319.119	3.90522
322.494	2.7732
325.868	2.76701
329.243	2.02396
332.618	1.94144
335.993	0.582092
339.368	0.425491
342.743	0.537022
346.117	0.30283
349.492	0.035606
352.867	0.068436
356.242	1.76181
359.617	3.06701
362.991	4.43628
366.366	5.45643
369.741	4.45932
373.116	3.31779
376.491	3.21683
379.865	3.58627
383.24	2.10939
386.615	3.59384
389.99	2.36518
393.365	3.28834
396.74	4.70388
400.114	3.09085
403.489	3.30943
406.864	1.82494
410.239	1.16235
413.614	0.326962
416.988	0.679356
420.363	0.003376
423.738	0.926922
427.113	3.74149
430.488	5.67495
433.863	9.51407
437.237	12.7398
440.612	14.0903
443.987	16.4975
447.362	17.4877
450.737	14.3692
454.111	13.1576
457.486	11.5513
460.861	9.83553
464.236	8.37624
467.611	6.66315
470.986	5.6559
474.36	7.19029
477.735	6.21858
481.11	6.49723
484.485	6.5516
487.86	6.14004
491.234	4.95911
494.609	3.57724
497.984	3.46822
501.359	2.90301
504.734	2.50769
508.108	3.57168
511.483	1.56805
514.858	1.68057
518.233	0.147236
521.608	0.061106
524.982	0.307909
528.357	0.253429
531.732	1.4523
535.107	1.35359
538.482	1.34322
541.857	1.18149
545.231	0.059185
548.606	0.28429
551.981	0.754318
555.356	0.035652
558.731	0.906116
562.106	0.065296
565.48	0.070101
568.855	0.670336
572.23	0.428236
575.605	0.352015
578.98	0.094248
582.354	0.055374
585.729	0.843327
589.104	0.047712
592.479	0.335136
595.854	0.315264
599.229	0.344042
602.603	0.314993
605.978	0.84951
609.353	0.891499
612.728	0.870571
616.102	0.235094
619.477	0.164791
622.852	0.552507
626.227	0.67944
629.602	1.41983
632.977	2.34944
636.351	2.44125
639.726	3.77055
643.101	4.49721
646.476	7.26548
649.851	9.24634
653.226	15.2725
656.6	22.2167
659.975	33.0117
663.35	44.1148
666.725	54.696
670.1	48.5143
673.474	32.3633
676.849	19.1372
680.224	12.5434
683.599	8.75758
686.974	7.49347
690.348	6.29059
693.723	5.29332
697.098	5.28383
700.473	3.74783
703.848	4.79977
707.222	3.64724
710.597	3.64067
713.972	1.43811
717.347	1.66145
720.722	0.37993
724.097	0.132763
727.471	0.037199
730.846	0.258989
734.221	0.277214
737.596	0.66415
740.971	0.2155
744.346	0.006317
747.72	0.655725
751.095	0.206055
754.47	0.179478
757.845	0.0935
761.22	0.299875
764.594	0.197708
767.969	0.408566
771.344	0.358088
774.719	1.39113
778.094	0.867962
781.468	1.63273
784.843	1.28954
788.218	0.959148
791.593	1.65152
794.968	1.84725
798.342	1.61901
801.717	1.54444
805.092	2.62427
808.467	2.43173
811.842	1.90816
815.217	2.4784
818.591	2.67211
821.966	2.07467
825.341	2.70941
828.716	2.23315
832.091	2.94871
835.466	3.74925
838.84	3.99358
842.215	3.11205
845.59	3.60554
848.965	4.02244
852.34	3.56079
855.714	3.54124
859.089	3.98656
862.464	2.69153
865.839	3.32122
869.214	3.46166
872.588	2.66856
875.963	2.46121
879.338	2.25779
882.713	2.51177
886.088	2.76063
889.462	1.15278
892.837	1.49077
896.212	0.947674
899.587	1.11066
902.962	1.45432
906.337	0.881725
909.711	0.270353
913.086	0.558676
916.461	0.909004
919.836	0.296391
923.211	0.337515
926.585	0.989197
929.96	0.62262
933.335	0.637274
936.71	0.046026
940.085	0.299055
943.46	0.304293
946.834	0.462517
950.209	0.225975
953.584	1.10689
956.959	1.25255
960.334	0.87184
963.708	1.2988
967.083	2.04107
970.458	1.84101
973.833	1.28778
977.208	1.51636
980.582	1.8694
983.957	1.97762
987.332	1.1242
990.707	5.69237
994.082	7.71075
997.457	9.18954
1000.83	12.2361
1004.21	16.9253
1007.58	18.1579
1010.96	11.8367
1014.33	6.24285
1017.71	3.33296
1021.08	2.30223
1024.45	0.947369
1027.83	0.282969
1031.2	0.375765
1034.58	0.591257
1037.95	0.168232
1041.33	0.550991
1044.7	1.36988
1048.08	0.997864
1051.45	0.804504
1054.83	1.18067
1058.2	2.0386
1061.58	1.87253
1064.95	1.97851
1068.33	3.27361
1071.7	2.20731
1075.08	2.74058
1078.45	1.82993
1081.83	2.26031
1085.2	2.39594
1088.58	3.14502
1091.95	1.93938
1095.33	1.49426
1098.7	0.790596
1102.08	0.766953
1105.45	0.43375
1108.83	0.810759
1112.2	1.09697
1115.58	0.038063
1118.95	0.674271
1122.33	0.039812
1125.7	0.084543
1129.07	0.014559
1132.45	0.249844
1135.82	0.023569
1139.2	0.809965
1142.57	0.071133
1145.95	0.647503
1149.32	1.14752
1152.7	0.666655
1156.07	1.30672
1159.45	0.167812
1162.82	0.73173
1166.2	1.10795
1169.57	0.281485
1172.95	0.852684
1176.32	0.960779
1179.7	0.933163
1183.07	0.364342
1186.45	1.46037
1189.82	1.94287
1193.2	0.90811
1196.57	1.51019
1199.94	0.609577
1203.32	0.788675
1206.69	1.10274
1210.07	0.816036
1213.44	1.12823
1216.82	1.20337
1220.19	0.756243
1223.57	0.429325
1226.94	0.483763
1230.32	1.41669
1233.69	1.18854
1237.07	2.09792
1240.44	0.367355
1243.82	1.2109
1247.19	0.891724
1250.57	1.05614
1253.94	1.35064
1257.32	0.37225
1260.69	0.96364
1264.07	0.947945
1267.44	0.650398
1270.82	0.352615
1274.19	0.053621
1277.57	0.411591
1280.94	0.62471
1284.32	0.184046
