Measurement: Raman, 780 nm, unoriented, Raman Data Processed
Mineral: Wherryite
Rruff sample: R110089
Ideal chemistry: Pb^2+^_7_Cu^2+^_2_(S^6+^O_4_)_4_(SiO_4_)_2_(OH)_2_
Locality: Mammoth-St Anthony mine, Tiger, Pinal County, Arizona, USA
Source: Brent Thorne and Joe Ruiz
Description: Pale green granular, associated with blue diaboleite
Raman shift (cm-1)	intensity
178.867	0
181.759	0.792053
184.652	24.5655
187.545	50.5479
190.437	100.435
193.33	144.48
196.223	152.344
199.115	121.11
202.008	76.7643
204.901	50.9689
207.794	49.8698
210.686	41.1876
213.579	29.8958
216.472	24.8429
219.364	26.5754
222.257	29.5561
225.15	40.0673
228.042	53.2757
230.935	64.2789
233.828	71.3329
236.721	75.2684
239.613	80.909
242.506	81.2868
245.399	78.6111
248.291	73.1174
251.184	63.4431
254.077	47.5031
256.969	33.9172
259.862	27.376
262.755	23.2713
265.648	10.5803
268.54	1.61212
271.433	1.43347
274.326	2.17786
277.218	5.16138
280.111	2.7721
283.004	3.96606
285.897	6.7699
288.789	12.4604
291.682	22.0559
294.575	24.3359
297.467	33.4699
300.36	35.9432
303.253	40.2042
306.145	45.4962
309.038	48.0289
311.931	61.3466
314.824	71.7372
317.716	76.5196
320.609	75.6933
323.502	62.3054
326.394	45.7717
329.287	33.7653
332.18	27.8173
335.072	23.299
337.965	15.9957
340.858	15.3015
343.75	17.044
346.643	19.1561
349.536	23.8277
352.429	28.5133
355.321	30.8596
358.214	32.6118
361.107	31.6791
364	29.8887
366.892	25.2672
369.785	25.6934
372.678	18.4805
375.57	14.0254
378.463	10.6105
381.356	5.15607
384.248	7.67755
387.141	5.77026
390.034	4.50342
392.926	1.03723
395.819	0.459961
398.712	0.40979
401.605	1.05853
404.497	0.036255
407.39	1.41144
410.283	0.246033
413.175	2.15894
416.068	1.41315
418.961	2.35632
421.853	1.97125
424.746	4.83514
427.639	6.01556
430.532	5.66827
433.424	9.13354
436.317	12.8054
439.21	13.8771
442.102	15.5014
444.995	14.6956
447.888	12.506
450.781	11.826
453.673	8.44098
456.566	9.57465
459.459	8.28455
462.351	4.3642
465.244	5.53101
468.137	8.75385
471.029	8.79413
473.922	10.555
476.815	8.05817
479.707	9.04169
482.6	12.8594
485.493	13.868
488.386	11.9285
491.278	15.5209
494.171	13.3515
497.064	16.6305
499.956	18.899
502.849	18.8285
505.742	18.2004
508.635	13.7508
511.527	15.6732
514.42	13.1894
517.313	10.8774
520.205	5.30612
523.098	2.28635
525.991	0.342468
528.883	0.539734
531.776	0.674774
534.669	3.85953
537.562	1.25821
540.454	1.73178
543.347	0.391388
546.24	3.23761
549.132	1.56192
552.025	2.82806
554.918	2.68597
557.81	2.41794
560.703	3.92752
563.596	5.22562
566.489	7.02924
569.381	5.11292
572.274	7.74048
575.167	2.59937
578.059	6.93231
580.952	3.45813
583.845	7.67313
586.737	4.67017
589.63	2.75149
592.523	2.99164
595.415	8.14691
598.308	3.72604
601.201	3.21787
604.094	2.84396
606.986	1.13229
609.879	1.56058
612.772	0.509094
615.664	1.30438
618.557	4.14743
621.45	0.202789
624.342	1.41071
627.235	0.58197
630.128	0.07486
633.021	4.18039
635.913	0.457062
638.806	2.2901
641.699	2.23914
644.591	2.87192
647.484	2.43619
650.377	3.56201
653.269	2.30814
656.162	3.6424
659.055	0.449219
661.948	1.74362
664.84	2.3381
667.733	4.23108
670.626	0.148682
673.518	4.69339
676.411	3.08243
679.304	4.59366
682.197	4.33948
685.089	3.30008
687.982	4.43491
690.875	6.01132
693.767	4.70633
696.66	5.54065
699.553	11.9229
702.445	7.66309
705.338	12.4533
708.231	15.051
711.124	13.2694
714.016	15.7768
716.909	13.6062
719.802	12.2135
722.694	12.1311
725.587	8.17471
728.48	5.09168
731.372	7.36499
734.265	4.5535
737.158	3.16318
740.051	1.99332
742.943	1.01761
745.836	0.519928
748.729	0.066162
751.621	1.77335
754.514	1.49966
757.407	4.01858
760.299	4.69308
763.192	1.60526
766.085	1.31842
768.977	0.756683
771.87	1.45334
774.763	1.52255
777.656	1.67841
780.548	1.80811
783.441	3.81162
786.334	4.05987
789.226	2.2637
792.119	2.01813
795.012	4.07205
797.904	6.41321
800.797	4.97571
803.69	5.45261
806.583	3.88727
809.475	5.66775
812.368	0.390076
815.261	3.84613
818.153	2.30478
821.046	0.712891
823.939	1.85312
826.832	2.0022
829.724	1.22522
832.617	3.49591
835.51	2.78757
838.402	6.26669
841.295	5.06335
844.188	5.95337
847.08	6.63312
849.973	7.12775
852.866	8.69458
855.759	13.7677
858.651	12.581
861.544	18.5093
864.437	16.8482
867.329	14.9078
870.222	17.0476
873.115	15.8713
876.007	16.6277
878.9	14.4209
881.793	11.3879
884.686	9.93564
887.578	6.7861
890.471	5.75845
893.364	7.99246
896.256	4.16312
899.149	0.0242
902.042	4.04086
904.934	3.30154
907.827	0.254395
910.72	4.55389
913.612	1.9151
916.505	1.99832
919.398	1.8266
922.291	0.767853
925.183	0.855682
928.076	1.28406
930.969	1.85232
933.861	1.37677
936.754	0.574463
939.647	1.06625
942.539	0.547729
945.432	1.34943
948.325	0.306671
951.218	2.63422
954.11	5.51852
957.003	3.24164
959.896	2.79309
962.788	3.47208
965.681	4.98962
968.574	5.31842
971.466	7.12665
974.359	7.2485
977.252	10.4657
980.145	11.6352
983.037	16.6851
985.93	20.9556
988.823	21.098
991.715	26.8176
994.608	27.602
997.501	29.4631
1000.39	26.2459
1003.29	23.1176
1006.18	21.2209
1009.07	17.6862
1011.96	16.0635
1014.86	15.4239
1017.75	12.7979
1020.64	10.0913
1023.53	7.37176
1026.43	4.3887
1029.32	3.24518
1032.21	1.15106
1035.11	3.08283
1038	1.47613
1040.89	2.39307
1043.78	1.33368
1046.68	0.699493
1049.57	0.875336
1052.46	5.05759
1055.36	3.78482
1058.25	3.33911
1061.14	3.3461
1064.03	6.23386
1066.93	5.12643
1069.82	7.50006
1072.71	5.26996
1075.6	5.21875
1078.5	4.18692
1081.39	4.22794
1084.28	2.91803
1087.17	0.895691
1090.07	1.49795
1092.96	0.957916
1095.85	1.15936
1098.74	1.50745
1101.64	2.04709
1104.53	2.9046
1107.42	1.11496
1110.32	1.83655
1113.21	2.71628
1116.1	0.536804
1118.99	0.079315
1121.89	1.27954
1124.78	2.81158
1127.67	3.05136
1130.57	0.613678
1133.46	2.66284
1136.35	2.9537
1139.24	3.93579
1142.14	3.41739
1145.03	3.9935
1147.92	2.8624
1150.81	3.05673
1153.71	1.42194
1156.6	3.37393
1159.49	7.39453
1162.38	5.03162
1165.28	5.3356
1168.17	5.58743
1171.06	5.22522
1173.96	6.85998
1176.85	3.15933
1179.74	4.95895
1182.63	4.50122
1185.53	2.30042
1188.42	4.68594
1191.31	4.77969
1194.2	3.84998
1197.1	4.08875
1199.99	2.41736
1202.88	6.67456
1205.78	6.09286
1208.67	2.53232
1211.56	3.37585
1214.45	3.63797
1217.35	1.56656
1220.24	5.41736
1223.13	0.973694
1226.02	2.60696
1228.92	0.433838
1231.81	1.80469
1234.7	0.567078
1237.6	1.81076
1240.49	2.59448
1243.38	1.10831
1246.27	4.10452
1249.17	0.782349
1252.06	2.4588
1254.95	2.13019
1257.84	4.09085
1260.74	0.521698
1263.63	2.38812
1266.52	0.057861
1269.41	4.01691
1272.31	4.67529
1275.2	5.315
1278.09	2.26944
1280.98	0.857483
1283.88	0.027649
