Measurement: Raman, 785 nm, unoriented, Raman Data Processed
Mineral: Wicksite
Rruff sample: R070274
Ideal chemistry: NaCa_2_Fe^2+^_2_(Fe^3+^,Mn^2+^,Fe^2+^)_4_(PO_4_)_6_2H_2_O
Locality: Big Fish River, Richardson Mountains, Dawson Mining District, Yukon Territory, Canada
Source: Royal Ontario Museum
Description: Compact aggregate of very dark green to black prismatic crystals with pale yellow satterlyite in a nodule
Raman shift (cm-1)	intensity
196.23	15.4607
199.122	78.1533
202.015	90.8711
204.908	114.121
207.8	93.5147
210.693	96.7647
213.586	111.498
216.478	128.484
219.371	161.992
222.264	117.105
225.157	118.972
228.049	122.851
230.942	102.309
233.835	75.7732
236.727	107.98
239.62	81.2224
242.513	103.37
245.405	134.994
248.298	144.86
251.191	151.995
254.084	113.868
256.976	104.879
259.869	138.318
262.762	86.8562
265.654	74.7861
268.547	94.5244
271.44	57.5178
274.332	27.0691
277.225	51.4236
280.118	50.2849
283.011	29.3545
285.903	61.4402
288.796	53.4526
291.689	39.3367
294.581	16.9619
297.474	3.8396
300.367	46.8894
303.26	22.6003
306.152	31.0962
309.045	39.2483
311.938	23.0459
314.83	72.2749
317.723	9.21069
320.616	12.76
323.508	43.7786
326.401	25.817
329.294	58.1787
332.187	93.6398
335.079	121.099
337.972	143.462
340.865	176.175
343.757	156.847
346.65	190.259
349.543	212.232
352.435	225.415
355.328	260.211
358.221	241.881
361.113	248.974
364.006	213.574
366.899	184.549
369.792	141.909
372.684	149.528
375.577	78.9993
378.47	67.636
381.362	13.4187
384.255	35.7329
387.148	6.71851
390.041	12.8162
392.933	35.9507
395.826	7.875
398.719	5.5979
401.611	15.532
404.504	1.81348
407.397	14.2253
410.289	15.2124
413.182	89.884
416.075	82.2249
418.967	35.2959
421.86	79.6196
424.753	61.4553
427.646	87.6858
430.538	56.148
433.431	67.2319
436.324	105.76
439.216	58.3403
442.109	93.9634
445.002	86.3774
447.894	80.9463
450.787	93.904
453.68	81.8977
456.573	92.8354
459.465	101.719
462.358	147.342
465.251	124.691
468.143	177.469
471.036	182.673
473.929	202.771
476.822	149.794
479.714	170.064
482.607	144.411
485.5	141.828
488.392	144.133
491.285	137.894
494.178	128.919
497.07	106.438
499.963	66.5051
502.856	82.6807
505.748	59.0332
508.641	48.6206
511.534	20.7266
514.427	30.5669
517.319	8.50513
520.212	41.845
523.105	9.09692
525.997	18.1396
528.89	8.45532
531.783	26.8716
534.676	16.2707
537.568	25.7654
540.461	13.3706
543.354	24.3701
546.246	28.1318
549.139	25.1502
552.032	37.2388
554.924	86.5215
557.817	114.224
560.71	145.617
563.602	122.413
566.495	151.082
569.388	170.908
572.281	214.441
575.173	254.342
578.066	244.802
580.959	301.404
583.851	329.681
586.744	315.006
589.637	352.693
592.529	376.247
595.422	313.329
598.315	312.441
601.208	373.309
604.1	327.561
606.993	319.222
609.886	318.816
612.778	266.436
615.671	242.822
618.564	211.615
621.457	177.777
624.349	148.533
627.242	135.562
630.135	125.687
633.027	78.99
635.92	60.25
638.813	98.9082
641.705	42.9224
644.598	61.8293
647.491	70.1028
650.384	72.5449
653.276	15.8069
656.169	35.3611
659.062	10.6602
661.954	11.0066
664.847	39.5828
667.74	61.7573
670.632	15.8042
673.525	33.6609
676.418	29.5991
679.311	34.3613
682.203	17.7361
685.096	68.8613
687.989	24.6277
690.881	12.9663
693.774	35.0024
696.667	6.7063
699.559	61.3589
702.452	23.5613
705.345	19.8901
708.237	79.032
711.13	60.8359
714.023	46.3276
716.916	53.8638
719.808	58.2339
722.701	48.3394
725.594	60.7393
728.486	58.7283
731.379	49.5212
734.272	18.1477
737.164	32.1599
740.057	25.3296
742.95	83.0029
745.843	53.1831
748.735	57.0127
751.628	4.08008
754.521	11.7124
757.413	30.1387
760.306	31.792
763.199	42.6167
766.091	79.645
768.984	17.4582
771.877	85.1338
774.77	24.1853
777.662	23.0366
780.555	20.5627
783.448	6.37817
786.34	13.7502
789.233	38.5876
792.126	59.4319
795.019	28.8389
797.911	38.8943
800.804	22.1863
803.697	39.5862
806.589	23.1626
809.482	26.113
812.375	50.9634
815.267	25.8235
818.16	40.1218
821.053	38.7405
823.946	29.2048
826.838	10.0215
829.731	37.3474
832.624	70.106
835.516	14.9524
838.409	50.4568
841.302	68.9646
844.194	41.5288
847.087	61.9951
849.98	50.426
852.872	65.7231
855.765	69.0794
858.658	14.9856
861.551	42.0564
864.443	20.8174
867.336	24.2402
870.229	0.903809
873.121	31.5405
876.014	28.908
878.907	14.1726
881.799	30.7844
884.692	5.42017
887.585	19.8718
890.478	22.1352
893.37	47.971
896.263	1.37573
899.156	29.1401
902.048	37.2832
904.941	9.61499
907.834	11.3972
910.726	18.8921
913.619	21.5347
916.512	44.1934
919.405	52.0825
922.297	45.0759
925.19	39.4915
928.083	5.10352
930.975	20.9048
933.868	17.5823
936.761	2.01147
939.654	41.491
942.546	25.6768
945.439	18.6475
948.332	45.0403
951.224	85.8149
954.117	145.231
957.01	108.386
959.902	170.352
962.795	139.958
965.688	182.805
968.581	194.973
971.473	151.476
974.366	158.155
977.259	158.023
980.151	147.328
983.044	153.625
985.937	162.893
988.829	164.491
991.722	157.212
994.615	124.248
997.508	141.48
1000.4	135.679
1003.29	140.275
1006.19	97.6692
1009.08	105.264
1011.97	89.8203
1014.86	19.6296
1017.76	26.1731
1020.65	21.0994
1023.54	36.4089
1026.43	4.23218
1029.33	53.6016
1032.22	18.0095
1035.11	26.573
1038.01	1.82178
1040.9	56.304
1043.79	42.4128
1046.68	62.8889
1049.58	87.6687
1052.47	131.354
1055.36	170.624
1058.25	169.436
1061.15	220.609
1064.04	247.756
1066.93	286.43
1069.83	340.934
1072.72	358.072
1075.61	373.672
1078.5	374.678
1081.4	373.051
1084.29	375.221
1087.18	355.653
1090.07	297.202
1092.97	278.027
1095.86	268.718
1098.75	259.843
1101.64	212.098
1104.54	222.762
1107.43	127.546
1110.32	128.017
1113.21	164.464
1116.11	148.394
1119	131.038
1121.89	111.548
1124.79	117.776
1127.68	95.0122
1130.57	132.228
1133.46	147.503
1136.36	97.5117
1139.25	127.711
1142.14	137.185
1145.04	139.964
1147.93	103.132
1150.82	103.342
1153.71	76.6943
1156.61	83.8855
1159.5	54.3293
1162.39	41.294
1165.28	32.8867
1168.18	81.2793
1171.07	23.1799
1173.96	31.2722
1176.86	19.6311
1179.75	8.35889
1182.64	2.71997
1185.53	12.699
1188.43	4.40869
1191.32	21.4729
1194.21	7.04883
1197.1	55.2065
1200	43.5532
1202.89	52.9431
1205.78	40.8684
1208.67	69.3118
1211.57	51.2937
1214.46	57.0378
1217.35	102.856
1220.24	79.5747
1223.14	32.4624
1226.03	96.552
1228.92	51.7964
1231.82	34.4758
1234.71	64.177
1237.6	53.3047
1240.49	36.8355
