Measurement: Raman, 532 nm, unoriented, Raman Data Processed
Mineral: Wicksite
Rruff sample: R070274
Ideal chemistry: NaCa_2_Fe^2+^_2_(Fe^3+^,Mn^2+^,Fe^2+^)_4_(PO_4_)_6_2H_2_O
Locality: Big Fish River, Richardson Mountains, Dawson Mining District, Yukon Territory, Canada
Source: Royal Ontario Museum
Description: Compact aggregate of very dark green to black prismatic crystals with pale yellow satterlyite in a nodule
Raman shift (cm-1)	intensity
180.035	0
182.928	0.165039
185.821	32.3967
188.713	57.723
191.606	40.6453
194.499	75.8767
197.391	110.49
200.284	150.477
203.177	191.334
206.07	211.071
208.962	205.066
211.855	204.929
214.748	241.758
217.64	169.152
220.533	158.253
223.426	183.268
226.318	180.752
229.211	113.906
232.104	146.469
234.996	99.929
237.889	120.564
240.782	121.523
243.675	147.197
246.567	189.586
249.46	216.194
252.353	214.177
255.245	195.31
258.138	197.578
261.031	161.435
263.923	120.911
266.816	148.643
269.709	129.002
272.602	72.7725
275.494	73.9469
278.387	50.0826
281.28	81.76
284.173	47.3954
287.065	76.7938
289.958	43.5099
292.851	41.3346
295.743	17.2827
298.636	13.9083
301.529	13.48
304.421	16.7004
307.314	21.401
310.207	19.3536
313.099	6.7179
315.992	9.22376
318.885	17.3459
321.778	15.3225
324.67	15.5049
327.563	17.0477
330.456	48.5894
333.348	26.2631
336.241	26.4507
339.134	29.1572
342.026	61.7178
344.919	26.7063
347.812	72.5057
350.705	125.007
353.597	114.454
356.49	108.666
359.383	136.734
362.275	76.3359
365.168	78.1342
368.061	112.778
370.954	67.2401
373.846	65.1549
376.739	66.0581
379.632	43.6488
382.524	38.5612
385.417	16.6834
388.31	11.9597
391.202	1.22144
394.095	0.401611
396.988	47.6384
399.88	14.634
402.773	56.658
405.666	81.9279
408.559	28.8707
411.451	34.0093
414.344	54.8394
417.237	74.9133
420.129	75.2308
423.022	88.6586
425.915	74.2708
428.808	95.7028
431.7	123.288
434.593	138.759
437.486	200.602
440.378	234.225
443.271	270.74
446.164	251.786
449.056	249.863
451.949	225.704
454.842	228.003
457.735	217.133
460.627	231.843
463.52	265.941
466.413	326.299
469.305	366.284
472.198	422.915
475.091	387.268
477.983	404.444
480.876	277.733
483.769	318.143
486.661	233.814
489.554	150.903
492.447	170.127
495.34	125.821
498.232	80.418
501.125	63.8984
504.018	64.4146
506.911	53.6719
509.803	40.6833
512.696	54.8339
515.589	13.1565
518.481	19.5811
521.374	3.10828
524.267	25.1931
527.159	20.6375
530.052	4.48059
532.945	0.568359
535.837	10.02
538.73	12.197
541.623	44.5468
544.516	45.0166
547.408	119.261
550.301	164.329
553.194	124.694
556.086	179.342
558.979	174.858
561.872	185.885
564.764	144.855
567.657	181.411
570.55	174.186
573.443	205.529
576.335	237.726
579.228	270.154
582.121	281.182
585.013	271.529
587.906	328.806
590.799	436.459
593.692	427.446
596.584	414.604
599.477	407.18
602.37	383.011
605.262	417.191
608.155	394.429
611.048	359.926
613.94	367.679
616.833	335.531
619.726	265.357
622.619	220.991
625.511	185.244
628.404	146.413
631.297	105.36
634.189	49.6887
637.082	48.4062
639.975	48.2798
642.867	77.29
645.76	67.4963
648.653	64.7437
651.545	43.5518
654.438	48.4978
657.331	74.1072
660.224	48.5969
663.116	10.7393
666.009	19.4875
668.902	9.98413
671.794	5.96509
674.687	21.1118
677.58	20.8709
680.472	28.9773
683.365	21.4194
686.258	21.2483
689.151	13.79
692.043	18.1543
694.936	21.4695
697.829	26.4812
700.721	22.542
703.614	26.8735
706.507	33.1467
709.399	28.0894
712.292	13.415
715.185	32.2251
718.078	40.0911
720.97	32.3882
723.863	40.8032
726.756	10.3286
729.648	29.0183
732.541	30.781
735.434	42.1765
738.327	20.4788
741.219	57.7485
744.112	40.3877
747.005	32.1641
749.897	33.2385
752.79	1.34912
755.683	48.5085
758.576	30.3972
761.468	22.7078
764.361	24.126
767.254	33.6799
770.146	10.615
773.039	49.5315
775.932	55.802
778.824	24.1741
781.717	4.65894
784.61	2.93726
787.503	32.8682
790.395	52.8953
793.288	22.0403
796.181	30.7058
799.073	39.5881
801.966	28.1863
804.859	46.7647
807.751	49.436
810.644	57.5298
813.537	24.8115
816.429	66.9326
819.322	84.0994
822.215	43.6843
825.108	64.0591
828	32.3411
830.893	92.2839
833.786	16.7087
836.678	68.2024
839.571	28.5261
842.464	55.6433
845.356	56.7258
848.249	50.1611
851.142	11.3298
854.035	21.9622
856.927	44.5791
859.82	49.6343
862.713	27.1191
865.605	12.5894
868.498	8.823
871.391	30.9648
874.284	9.53076
877.176	33.3218
880.069	15.4292
882.962	16.9065
885.854	46.8301
888.747	28.8225
891.64	36.3772
894.533	17.0825
897.425	0.87085
900.318	21.3367
903.211	75.083
906.103	85.6882
908.996	62.8291
911.889	129.056
914.781	108.538
917.674	118.65
920.567	166.244
923.46	186.129
926.352	128.558
929.245	162.617
932.138	167.048
935.03	185.014
937.923	166.878
940.816	249.153
943.708	264.971
946.601	306.793
949.494	403.161
952.386	502.304
955.279	617.699
958.172	683.551
961.065	768.213
963.957	858.43
966.85	835.859
969.743	774.624
972.635	776.869
975.528	731.595
978.421	724.083
981.313	669.658
984.206	618.831
987.099	625.028
989.992	652.879
992.884	611.197
995.777	626.825
998.67	601.504
1001.56	534.891
1004.46	530.287
1007.35	511.446
1010.24	417.018
1013.13	384.727
1016.03	346.101
1018.92	255.578
1021.81	177.672
1024.7	181.707
1027.6	149.975
1030.49	147.083
1033.38	39.9631
1036.28	47.1833
1039.17	26.2742
1042.06	4.81519
1044.95	3.43066
1047.85	7.77905
1050.74	31.7944
1053.63	1.41699
1056.52	16.6016
1059.42	5.22705
1062.31	33.6909
1065.2	3.44043
1068.09	29.6255
1070.99	0.134033
1073.88	23.0781
1076.77	61.8794
1079.66	38.5725
1082.56	50.5938
1085.45	28.1074
1088.34	34.2385
1091.24	43.9116
1094.13	92.7217
1097.02	48.3296
1099.91	75.6792
1102.81	68.2754
1105.7	57.3342
1108.59	0.138672
1111.48	51.4377
1114.38	87.6055
1117.27	94.5537
1120.16	66.5625
1123.06	117.577
1125.95	56.0974
1128.84	98.4448
1131.73	122.806
1134.63	89.9348
1137.52	156.8
1140.41	171.702
1143.31	164.062
1146.2	146.882
1149.09	151.576
1151.98	149.522
1154.88	159.916
1157.77	139.74
1160.66	141.916
1163.55	138.251
1166.45	94.3457
1169.34	107.451
1172.23	83.7134
1175.12	66.3835
1178.02	52.865
1180.91	33.2837
1183.8	76.7602
1186.69	12.2463
1189.59	4.35986
1192.48	30.2358
1195.37	17.5125
1198.27	0.890869
1201.16	55.9426
1204.05	38.1504
1206.94	22.9534
1209.84	12.7756
1212.73	39.6975
1215.62	37.9946
1218.52	20.3982
1221.41	45.9485
1224.3	57.9685
1227.19	45.6406
1230.09	75.1758
1232.98	37.5808
1235.87	78.8743
1238.76	88.9307
1241.66	104.639
1244.55	64.5774
1247.44	96.8227
1250.34	66.0947
1253.23	100.961
1256.12	53.1707
1259.01	81.3301
1261.91	110.739
1264.8	92.5408
1267.69	78.6509
1270.58	63.8528
1273.48	31.5002
1276.37	69.6631
1279.26	57.9612
1282.15	54.5896
1285.05	37.7439
1287.94	47.9724
1290.83	15.8813
1293.72	25.1858
1296.62	5.20068
1299.51	11.2837
1302.4	13.0957
1305.3	48.011
1308.19	7.95996
1311.08	30.2732
1313.97	58.6016
