Measurement: Raman, 785 nm, unoriented, Raman Data Processed
Mineral: Wilkinsonite
Rruff sample: R060922
Ideal chemistry: Na_4_(Fe^2+^_8_Fe^3+^_4_)O_4_[Si_12_O_36_]
Locality: Warrumbungle Volcanics, New South Wales, Australia
Description: Black anhedral grains found as inclusions within colorless anorthoclase
Measured chemistry: Na_1.00_(Fe^2+^_1.87_Mn_0.07_Fe^3+^_0.03_)_Σ=2_(Fe^3+^_0.97_Cr_0.03_)_Σ=1_(Si_2.94_Al_0.06_)_Σ=3_O_10_ ; the dark phase is anorthoclase: (Na_0.71_K_0.29_)_Σ=1_(Al_0.95_Fe^3+^_0.05_)_Σ=1_Si_3.00_O_8_
Raman shift (cm-1)	intensity
143.005	0
145.898	95.7956
148.791	639.272
151.683	1044.85
154.576	956.162
157.469	999.421
160.362	978.411
163.254	1230.03
166.147	1455.31
169.04	1650.02
171.932	1704.25
174.825	1664.62
177.718	1591.62
180.61	1462.66
183.503	1339.14
186.396	1241.13
189.288	1169.62
192.181	1005.58
195.074	902.132
197.967	737.185
200.859	649.938
203.752	567.881
206.645	378
209.537	349.695
212.43	362.707
215.323	228.875
218.215	250.144
221.108	213.608
224.001	263.199
226.894	175.986
229.786	242.429
232.679	299.625
235.572	272.26
238.464	218.776
241.357	367.651
244.25	252.945
247.143	182.41
250.035	144.438
252.928	339.571
255.821	43.5645
258.713	33.3975
261.606	45.2837
264.499	90.3438
267.391	35.5024
270.284	2.25635
273.177	94.9849
276.07	1.94434
278.962	81.2222
281.855	102.102
284.748	79.6567
287.64	181.401
290.533	334.619
293.426	347.147
296.318	345.707
299.211	296.661
302.104	436.968
304.997	478.371
307.889	510.031
310.782	437.591
313.675	552.797
316.567	522.144
319.46	406.737
322.353	395.72
325.245	366.133
328.138	440.694
331.031	269.482
333.923	311.138
336.816	230.702
339.709	208.811
342.602	281.875
345.494	252.511
348.387	257.922
351.28	325.33
354.172	344.313
357.065	368.154
359.958	351.396
362.851	222.535
365.743	190.918
368.636	114.567
371.529	52.2695
374.421	67.2358
377.314	37.6235
380.207	50.0605
383.099	1.6499
385.992	114.384
388.885	240.079
391.777	346.205
394.67	461.791
397.563	631.52
400.456	701.64
403.348	731.238
406.241	637.68
409.134	512.752
412.026	521.145
414.919	428.111
417.812	347.78
420.704	304.725
423.597	366.805
426.49	291.786
429.383	442.199
432.275	312.627
435.168	453.735
438.061	588.013
440.953	629.168
443.846	735.592
446.739	772.136
449.632	801.522
452.524	806.781
455.417	878.859
458.31	897.888
461.202	734.911
464.095	736.869
466.988	577.904
469.88	457.852
472.773	408.924
475.666	378.396
478.558	241.727
481.451	123.501
484.344	73.8306
487.237	35.354
490.129	52.938
493.022	58.5454
495.915	57.5254
498.807	42.606
501.7	21.7969
504.593	114.329
507.486	169.884
510.378	251.483
513.271	247.872
516.164	379.81
519.056	403.852
521.949	438.127
524.842	652.946
527.734	724.858
530.627	843.598
533.52	975.464
536.413	1135.11
539.305	1283.17
542.198	1469.93
545.091	1531.36
547.983	1678.92
550.876	1446.21
553.769	1619.1
556.661	1439.04
559.554	1503.23
562.447	1472.36
565.34	1391.28
568.232	1405.81
571.125	1265.29
574.018	1108.71
576.91	942.356
579.803	797.643
582.696	627.579
585.588	359.51
588.481	344.904
591.374	254.301
594.266	103.564
597.159	150.804
600.052	102.033
602.945	62.6243
605.837	7.07031
608.73	41.0754
611.623	91.0967
614.515	39.8154
617.408	53.676
620.301	12.7522
623.193	64.2222
626.086	37.7454
628.979	84.0427
631.872	110.727
634.764	142.119
637.657	130.686
640.55	50.5693
643.442	54.1658
646.335	85.7268
649.228	72.3418
652.12	155.158
655.013	149.494
657.906	133.159
660.799	179.613
663.691	142.528
666.584	130.776
669.477	138.859
672.369	175.903
675.262	327.75
678.155	172.019
681.048	289.378
683.94	192.059
686.833	216.58
689.726	276.859
692.618	199.202
695.511	208.644
698.404	200.264
701.296	189.203
704.189	199.645
707.082	126.35
709.975	161.651
712.867	60.8479
715.76	121.879
718.653	27.7197
721.545	118.421
724.438	243.507
727.331	99.1394
730.223	121.621
733.116	98.908
736.009	209.853
738.902	82.9829
741.794	184.036
744.687	137.647
747.58	100.317
750.472	138.944
753.365	177.068
756.258	68.1419
759.15	126.81
762.043	105.002
764.936	126.589
767.828	29.875
770.721	65.8259
773.614	29.6291
776.507	3.92432
779.399	0.491455
782.292	105.249
785.185	27.4936
788.077	124.568
790.97	54.8059
793.863	58.1545
796.755	47.7622
799.648	53.75
802.541	34.939
805.434	83.6155
808.326	85.812
811.219	24.0962
814.112	145.981
817.004	138.334
819.897	173.627
822.79	67.2747
825.683	166.956
828.575	232.156
831.468	181.673
834.361	180.441
837.253	132.356
840.146	192.507
843.039	146.87
845.931	211.772
848.824	124.591
851.717	107.271
854.61	26.8589
857.502	62.2246
860.395	34.3193
863.288	54.3215
866.18	81.4856
869.073	34.0772
871.966	129.569
874.858	38.3953
877.751	49.9138
880.644	137.869
883.537	89.5234
886.429	111.863
889.322	108.93
892.215	46.6169
895.107	107.686
898	48.1909
900.893	124.135
903.785	63.0503
906.678	96.1555
909.571	115.42
912.463	165.513
915.356	166.528
918.249	110.955
921.142	238.754
924.034	55.6091
926.927	38.6794
929.82	159.529
932.712	264.204
935.605	156.644
938.498	143.66
941.39	163.896
944.283	190.386
947.176	221.837
950.069	214.061
952.961	263.601
955.854	282.509
958.747	328.471
961.639	242.181
964.532	329.851
967.425	271.481
970.317	273.076
973.21	212.62
976.103	332.065
978.996	301.034
981.888	268.625
984.781	282.904
987.674	213.32
990.566	209.052
993.459	211.034
996.352	231.246
999.245	198.624
1002.14	83.8235
1005.03	7.41894
1007.92	74.3826
1010.82	25.9131
1013.71	49.904
1016.6	26.064
1019.49	44.9097
1022.39	102.263
1025.28	47.7141
1028.17	64.6931
1031.06	26.9336
1033.96	122.604
1036.85	67.4956
1039.74	256.279
1042.63	194.341
1045.53	77.3521
1048.42	77.1926
1051.31	174.73
1054.21	194.507
1057.1	157.222
1059.99	265.729
1062.88	204.83
1065.78	195.357
1068.67	157.012
1071.56	155.628
1074.45	238.036
1077.35	241.088
1080.24	169.724
1083.13	231.655
1086.03	107.801
1088.92	117.198
1091.81	186.372
1094.7	175.826
1097.6	68.098
1100.49	35.3435
1103.38	95.2618
1106.27	41.5928
1109.17	88.0468
1112.06	17.4635
1114.95	84.7519
1117.85	61.9757
1120.74	56.9663
1123.63	89.8117
1126.52	0.179199
1129.42	115.877
1132.31	164.744
1135.2	139.811
1138.09	132.694
1140.99	160.249
1143.88	96.0864
1146.77	38.5725
1149.66	99.0092
1152.56	186.703
1155.45	105.749
1158.34	82.1832
1161.24	129.891
1164.13	226.011
1167.02	140.188
1169.91	71.6874
1172.81	260.057
1175.7	146.344
1178.59	35.1566
1181.48	117.951
1184.38	142.206
1187.27	29.0465
1190.16	243.249
1193.06	140.895
1195.95	106.778
1198.84	67.717
1201.73	140.823
1204.63	112.696
1207.52	94.0886
1210.41	86.9872
1213.3	70.2479
1216.2	120.655
1219.09	106.256
1221.98	57.1987
1224.88	215.01
1227.77	110.8
1230.66	93.0006
1233.55	76.3732
1236.45	37.0994
1239.34	137.362
1242.23	64.654
1245.12	0
