Measurement: Raman, 532 nm, unoriented, Raman Data Processed
Mineral: Wilkinsonite
Rruff sample: R060922
Ideal chemistry: Na_4_(Fe^2+^_8_Fe^3+^_4_)O_4_[Si_12_O_36_]
Locality: Warrumbungle Volcanics, New South Wales, Australia
Description: Black anhedral grains found as inclusions within colorless anorthoclase
Measured chemistry: Na_1.00_(Fe^2+^_1.87_Mn_0.07_Fe^3+^_0.03_)_Σ=2_(Fe^3+^_0.97_Cr_0.03_)_Σ=1_(Si_2.94_Al_0.06_)_Σ=3_O_10_ ; the dark phase is anorthoclase: (Na_0.71_K_0.29_)_Σ=1_(Al_0.95_Fe^3+^_0.05_)_Σ=1_Si_3.00_O_8_
Raman shift (cm-1)	intensity
130.414	0
133.789	33.0942
137.163	37.2882
140.538	118.846
143.913	186.252
147.288	407.291
150.663	530.26
154.038	566.145
157.412	611.783
160.787	688.432
164.162	689.537
167.537	701.323
170.912	766.832
174.286	711.231
177.661	622.721
181.036	596.819
184.411	552.958
187.786	509.702
191.161	427.772
194.535	329.47
197.91	237.825
201.285	200.115
204.66	148.93
208.035	177.612
211.41	131.134
214.784	174.365
218.159	113.465
221.534	165.496
224.909	227.957
228.284	331.961
231.658	328.244
235.033	270.487
238.408	162.417
241.783	99.7271
245.158	65.1419
248.532	96.759
251.907	23.6133
255.282	11.7759
258.657	11.6357
262.032	65.1516
265.406	8.1333
268.781	39.8069
272.156	57.7994
275.531	8.9187
278.906	34.677
282.281	101.976
285.655	118.972
289.03	120.603
292.405	262.595
295.78	317.033
299.155	338.21
302.529	368.503
305.904	421.965
309.279	498.707
312.654	480.206
316.029	488.678
319.404	448.09
322.778	419.762
326.153	398.887
329.528	335.469
332.903	267.026
336.278	284.875
339.652	293.154
343.027	286.688
346.402	297.474
349.777	261.334
353.152	281.495
356.527	326.75
359.901	275.544
363.276	281.641
366.651	295.806
370.026	299.58
373.401	229.186
376.776	152.232
380.15	95.4954
383.525	22.2773
386.9	10.688
390.275	15.6435
393.65	16.321
397.024	16.1152
400.399	45.593
403.774	87.145
407.149	83.2729
410.524	147.162
413.899	219.18
417.273	214.142
420.648	296.163
424.023	234.247
427.398	233.99
430.773	235.426
434.147	310.414
437.522	347.983
440.897	352.506
444.272	383.957
447.647	320.521
451.022	271.199
454.396	220.497
457.771	252.39
461.146	152.97
464.521	153.996
467.896	126.917
471.27	122.471
474.645	102.675
478.02	54.6384
481.395	103.854
484.77	21.5913
488.144	21.167
491.519	23.3843
494.894	7.42847
498.269	20.1069
501.644	21.415
505.019	4.52979
508.393	10.0403
511.768	21.4224
515.143	15.1577
518.518	9.91333
521.893	62.6719
525.268	106.882
528.642	231.757
532.017	318.262
535.392	350.825
538.767	438.553
542.142	497.453
545.516	556.195
548.891	599.529
552.266	692.89
555.641	713.785
559.016	759.529
562.39	738.001
565.765	780.604
569.14	755.009
572.515	719.623
575.89	634.311
579.265	578.508
582.639	533.018
586.014	437.623
589.389	275.474
592.764	300.474
596.139	317.667
599.514	192.935
602.888	235.95
606.263	221.653
609.638	120.819
613.013	70.6282
616.388	80.9995
619.762	27.2398
623.137	17.2336
626.512	1.50928
629.887	8.17456
633.262	53.9273
636.636	24.8494
640.011	55.6404
643.386	25.9788
646.761	4.3999
650.136	21.2354
653.511	78.3762
656.885	23.0881
660.26	53.2293
663.635	143.379
667.01	281.308
670.385	263.239
673.76	325.845
677.134	496.009
680.509	519.801
683.884	546.546
687.259	527.68
690.634	515.447
694.008	433.381
697.383	369.892
700.758	339.782
704.133	366.955
707.508	386.594
710.882	342.802
714.257	410.789
717.632	348.576
721.007	325.851
724.382	374.342
727.757	336.802
731.131	341.014
734.506	233.324
737.881	232.304
741.256	119.098
744.631	173.37
748.005	136.156
751.38	78.7961
754.755	13.2342
758.13	73.6399
761.505	45.915
764.88	12.1202
768.254	27.3778
771.629	39.5063
775.004	12.0884
778.379	34.7638
781.754	10.5635
785.129	17.5492
788.503	30.335
791.878	14.9598
795.253	1.6925
798.628	14.4784
802.003	29.6307
805.377	1.70898
808.752	6.28833
812.127	24.8218
815.502	47.2023
818.877	62.495
822.251	86.7495
825.626	13.7079
829.001	44.725
832.376	25.2523
835.751	92.4915
839.125	38.6525
842.5	65.4992
845.875	82.6284
849.25	35.4302
852.625	67.0753
856	4.43176
859.375	20.4641
862.749	60.9463
866.124	78.4924
869.499	40.8928
872.874	81.2611
876.249	83.7052
879.623	59.2858
882.998	26.1691
886.373	58.697
889.748	69.2808
893.123	122.04
896.497	48.6984
899.872	107.242
903.247	44.9939
906.622	84.7094
909.997	57.9708
913.371	27.0814
916.746	65.4368
920.121	73.8257
923.496	49.2882
926.871	99.7744
930.246	41.5627
933.62	148.147
936.995	127.482
940.37	82.0192
943.745	93.6448
947.12	140.684
950.495	85.8162
953.869	89.1899
957.244	133.496
960.619	132.602
963.994	203.803
967.369	120.493
970.744	177.295
974.118	198.493
977.493	210.876
980.868	136.531
984.243	240.788
987.618	129.288
990.992	89.6205
994.367	112.014
997.742	102.29
1001.12	18.1587
1004.49	9.09802
1007.87	32.5031
1011.24	6.59888
1014.62	14.5625
1017.99	28.303
1021.37	46.6616
1024.74	26.9414
1028.12	58.4542
1031.49	25.5998
1034.87	16.4936
1038.24	79.1288
1041.62	108.106
1044.99	79.2521
1048.36	72.1633
1051.74	120.981
1055.11	108.314
1058.49	108.166
1061.86	179.903
1065.24	109.631
1068.61	164.086
1071.99	140.321
1075.36	127.819
1078.74	42.2947
1082.11	65.3402
1085.49	87.8164
1088.86	109.736
1092.24	78.7034
1095.61	59.7454
1098.99	91.7927
1102.36	21.998
1105.74	57.7679
1109.11	24.799
1112.49	45.5505
1115.86	35.2255
1119.23	46.9932
1122.61	52.8701
1125.98	69.8191
1129.36	46.4437
1132.73	34.9804
1136.11	31.9168
1139.48	39.7433
1142.86	151.672
1146.23	49.4924
1149.61	64.3168
1152.98	47.7758
1156.36	86.0553
1159.73	123.415
1163.11	128.088
1166.48	82.2887
1169.86	34.3329
1173.23	121.752
1176.61	89.7588
1179.98	60.1519
1183.36	115.086
1186.73	58.6273
1190.11	81.4531
1193.48	14.1515
1196.86	69.6279
1200.23	103.487
1203.61	68.2534
1206.98	52.4738
1210.36	108.108
1213.73	72.9508
1217.11	20.5472
1220.48	80.9935
1223.86	79.7897
1227.23	44.7844
1230.6	109.069
1233.98	115.31
1237.35	92.8711
1240.73	87.5239
1244.1	69.2716
1247.48	127.379
1250.85	29.7336
1254.23	76.5463
1257.6	29.264
1260.98	137.459
1264.35	81.3656
1267.73	46.0419
1271.1	36.8109
1274.48	43.1986
1277.85	69.4869
1281.23	54.4418
1284.6	47.5118
1287.98	56.4756
1291.35	66.7811
