Measurement: Raman, 532 nm, unoriented, Raman Data Processed
Mineral: Willemseite
Rruff sample: R061112
Ideal chemistry: Ni^2+^_3_Si_4_O_10_(OH)_2_
Locality: near Scotia Talc mine, Barberton Mountain, Transvaal, South Africa
Source: Michael Scott
Description: Green massive
Raman shift (cm-1)	intensity
165.608	0
168.501	106.863
171.394	294.316
174.286	223.898
177.179	302.922
180.072	536.965
182.965	792.094
185.857	1405.36
188.75	1847.24
191.643	1878.57
194.535	1164.7
197.428	613.871
200.321	594.992
203.214	499.316
206.106	497.062
208.999	299.977
211.892	450.394
214.784	416.094
217.677	510.789
220.57	460.938
223.462	353.367
226.355	367.672
229.248	255.75
232.141	344.894
235.033	327.488
237.926	224.621
240.819	334.559
243.711	203.203
246.604	256.941
249.497	157.203
252.389	163.344
255.282	261.25
258.175	124.68
261.067	304.035
263.96	198.106
266.853	121.055
269.746	28.5039
272.638	84.168
275.531	210.484
278.424	163.68
281.316	18.6953
284.209	21.8281
287.102	191.695
289.995	78.3789
292.887	181.457
295.78	167.019
298.673	115.078
301.565	181.602
304.458	158.988
307.351	269.953
310.243	207.688
313.136	78.1797
316.029	142.387
318.921	137.027
321.814	205.309
324.707	259.672
327.6	201.621
330.492	141.332
333.385	63.4961
336.278	62.3867
339.17	49.0938
342.063	0.257813
344.956	227.5
347.849	77.2734
350.741	57.25
353.634	92.5586
356.527	98.5195
359.419	1.82031
362.312	79.9102
365.205	159.031
368.097	199.941
370.99	307.598
373.883	253.188
376.776	505.469
379.668	336.902
382.561	246.039
385.454	205.469
388.346	116.277
391.239	11.0469
394.132	60.5156
397.024	121.902
399.917	35.0938
402.81	210.344
405.702	223.555
408.595	336.773
411.488	186.434
414.381	339.324
417.273	403.082
420.166	245.633
423.059	240.262
425.951	260.07
428.844	138.82
431.737	208.305
434.63	130.664
437.522	79.625
440.415	83.3828
443.308	269.219
446.2	59.2188
449.093	26.0469
451.986	33.3516
454.878	164.461
457.771	183.195
460.664	175.25
463.557	368.781
466.449	219.258
469.342	377.164
472.235	52.2734
475.127	144
478.02	98.7969
480.913	294.469
483.805	222.336
486.698	87.7266
489.591	213.203
492.483	186.734
495.376	208.195
498.269	375.984
501.162	134.211
504.054	269.875
506.947	281.844
509.84	285.43
512.732	331.516
515.625	79.8828
518.518	184.859
521.41	80.5234
524.303	69.6875
527.196	313.844
530.089	177.984
532.981	106.625
535.874	176.938
538.767	209.18
541.659	44.4375
544.552	102.422
547.445	156.891
550.337	141.672
553.23	69.0391
556.123	61.4375
559.016	58.8828
561.908	157.828
564.801	152.062
567.694	222.477
570.586	163.359
573.479	61.3281
576.372	104.578
579.264	163.758
582.157	10.7109
585.05	70.9219
587.943	185.531
590.835	65.0156
593.728	133.336
596.621	23.0703
599.514	303.32
602.406	119.742
605.299	50.25
608.192	85.5156
611.084	240.414
613.977	254.438
616.87	192.438
619.762	241.328
622.655	200.672
625.548	496.891
628.441	220.727
631.333	399.609
634.226	440.961
637.119	675.539
640.011	538.406
642.904	597.555
645.797	516.945
648.689	813.656
651.582	696.633
654.475	842.805
657.367	719.156
660.26	930.18
663.153	1187.08
666.046	1257.1
668.938	1274.55
671.831	1424.35
674.724	1725.98
677.616	1429.81
680.509	879.273
683.402	703.875
686.294	534.086
689.187	459.703
692.08	204.039
694.973	408.664
697.865	368.914
700.758	151.508
703.651	358.172
706.543	249.562
709.436	248.312
712.329	221.859
715.221	20.0859
718.114	48.1328
721.007	194.758
723.9	120.555
726.792	205.586
729.685	22.8203
732.578	27.5781
735.47	107.477
738.363	28.6953
741.256	141.016
744.149	192.18
747.041	44.3203
749.934	133.172
752.827	78.0391
755.719	108.273
758.612	101.555
761.505	189.023
764.397	257.789
767.29	251.016
770.183	340.008
773.076	373.086
775.968	275.445
778.861	122.711
781.754	192.273
784.646	306.438
787.539	282.5
790.432	315.703
793.324	104.875
796.217	125.227
799.11	341.695
802.003	546.422
804.895	32.3359
807.788	8.96875
810.681	257.789
813.573	362.773
816.466	203.555
819.359	37.9141
822.251	459.648
825.144	217.961
828.037	76.2109
830.929	176.445
833.822	56.2812
836.715	433.961
839.608	38.1172
842.5	59.4609
845.393	152.016
848.286	69.8438
851.178	337.305
854.071	53.0703
856.964	271.562
859.856	339.359
862.749	203.234
865.642	66.4297
868.535	467.625
871.427	125.133
874.32	179.82
877.213	72.1094
880.105	280.414
882.998	125.188
885.891	186.961
888.784	25.4297
891.676	391.258
894.569	50.1016
897.462	188.25
900.354	150.57
903.247	49.7422
906.14	127.344
909.032	369.328
911.925	131.914
914.818	73.7109
917.711	100.961
920.603	357.844
923.496	313.188
926.389	255.492
929.281	247.477
932.174	53.2422
935.067	129.703
937.96	99.6484
940.852	127.141
943.745	251.18
946.638	359.141
949.53	285.547
952.423	316.547
955.316	169.594
958.208	197.141
961.101	249.203
963.994	30.8906
966.886	137.797
969.779	41.6172
972.672	72.5547
975.565	84.5078
978.457	184.367
981.35	225.492
984.243	150.5
987.135	60.4531
990.028	376.828
992.921	332.695
995.813	326.461
998.706	208.469
1001.6	1.8125
1004.49	44.625
1007.38	286.156
1010.28	134.93
1013.17	147.922
1016.06	310.094
1018.96	365.922
1021.85	189.977
1024.74	208.07
1027.63	127.992
1030.53	171.656
1033.42	130.812
1036.31	119.508
1039.2	371.227
1042.1	211.867
1044.99	532.633
1047.88	349.508
1050.78	88.7656
1053.67	249.516
1056.56	198.734
1059.45	141.289
1062.35	130.453
1065.24	315.141
1068.13	153.25
1071.02	509.18
1073.92	192.102
1076.81	206.43
1079.7	442.094
1082.59	335.898
1085.49	231.102
1088.38	486.984
1091.27	492.188
1094.16	72.9453
1097.06	195.633
1099.95	45.3516
1102.84	123.586
1105.74	98.6719
1108.63	315.656
1111.52	17.3438
1114.41	79.0078
1117.31	264.602
1120.2	205.453
1123.09	109.867
1125.98	364.594
1128.88	360.484
1131.77	411.469
1134.66	442
1137.56	283.18
1140.45	306.109
1143.34	473.297
1146.23	356.023
1149.13	289.562
1152.02	506.82
1154.91	61.2734
1157.81	388.312
1160.7	382.508
1163.59	540.891
1166.48	138.086
1169.38	661.578
1172.27	271.086
1175.16	222.305
1178.05	364.758
1180.95	89.9844
1183.84	188.68
1186.73	182.148
1189.62	213.188
1192.52	655.539
1195.41	592.43
1198.3	494.805
1201.19	353.078
1204.09	330.258
1206.98	120.281
1209.87	29.375
1212.77	490.766
1215.66	21.0312
1218.55	92.2734
1221.44	321.367
1224.34	136.992
1227.23	30.1562
1230.12	75.4531
1233.02	40.9453
1235.91	0.820313
1238.8	105.828
1241.69	186.359
1244.59	216.922
1247.48	65.875
1250.37	207.422
1253.26	154.953
1256.16	29.625
1259.05	120.797
1261.94	118.891
1264.84	53.375
1267.73	107.828
1270.62	95.5156
1273.51	392.172
1276.4	292.484
1279.3	199.188
1282.19	22.875
1285.08	5.82812
1287.98	183.547
1290.87	303.578
