Measurement: Raman, 532 nm, unoriented, Raman Data Processed
Mineral: Willemite
Rruff sample: R050652
Ideal chemistry: Zn^2+^_2_SiO_4_
Locality: Franklin Furnace, Sussex County, New Jersey, USA
Source: University of Arizona Mineral Museum
Description: Parallel aggregate of colorless acicular crystals
Measured chemistry: (Zn_1.99_Mn_0.01_)_Î£=2_Si_1.00_O_4_
Raman shift (cm-1)	intensity
153.903	0
156.796	59.5684
159.689	80.7676
162.581	13.5508
165.474	7.91016
168.367	46.416
171.259	203.769
174.152	249.93
177.045	260.012
179.938	129.965
182.83	77.2812
185.723	1.47461
188.616	43.4355
191.508	118.82
194.401	99.8223
197.294	92.6328
200.186	79.9473
203.079	157.826
205.972	79.2148
208.864	52.1016
211.757	97.5723
214.65	96.3731
217.543	132.174
220.435	93.7168
223.328	130.965
226.221	92.9004
229.113	113.35
232.006	92.0918
234.899	101.5
237.792	103.537
240.684	87.1602
243.577	28.1113
246.47	30.6309
249.362	46.0859
252.255	16.4434
255.148	48.1914
258.041	91.3691
260.933	27.7617
263.826	43.5293
266.719	91.8828
269.611	66.9492
272.504	28.4922
275.397	49.8301
278.289	41.1797
281.182	111
284.075	70.3926
286.967	61.832
289.86	77.9356
292.753	94.1035
295.646	27.7168
298.538	36.5801
301.431	46.7559
304.324	23.6133
307.216	25.6602
310.109	28.2344
313.002	43.0215
315.895	76.4551
318.787	67.2617
321.68	35.7695
324.573	45.4238
327.465	82.8418
330.358	106.928
333.251	95.7031
336.144	94.3906
339.036	29.3594
341.929	53.5859
344.822	42.2285
347.714	124.186
350.607	128.258
353.5	109.514
356.392	66.166
359.285	33.3203
362.178	54.5547
365.07	55.4004
367.963	123.147
370.856	128.91
373.749	123.424
376.641	104.147
379.534	140.607
382.427	138.418
385.32	102.746
388.212	117.504
391.105	90.4141
393.998	79.4238
396.89	83.8047
399.783	90.1328
402.676	97.8086
405.568	77.6426
408.461	62.7617
411.354	46.3926
414.247	40.6973
417.139	68.8848
420.032	24.8242
422.925	60.2812
425.817	16.9941
428.71	42.334
431.603	17.5742
434.495	5.40625
437.388	1.26172
440.281	4.01367
443.173	22.8281
446.066	7.40039
448.959	5.19531
451.852	18.3848
454.744	41.002
457.637	67.4414
460.53	47.3379
463.423	54.9316
466.315	13.1836
469.208	20.7383
472.101	17.9902
474.993	30.0195
477.886	20.7461
480.779	81.3008
483.671	53.0977
486.564	2.59961
489.457	25.752
492.349	23.1934
495.242	28.5996
498.135	87.5293
501.028	104.856
503.92	83.1309
506.813	62.1895
509.706	65.4941
512.598	31.8594
515.491	70.7207
518.384	48.4609
521.277	27.9492
524.169	9.30859
527.062	33.8086
529.955	3.20508
532.847	88.8906
535.74	69.7412
538.633	42.3193
541.525	76.2744
544.418	125.014
547.311	147.007
550.204	153.222
553.096	148.725
555.989	66.2666
558.882	76.3408
561.774	59.6514
564.667	53.1445
567.56	38.9707
570.452	52.7568
573.345	53.8965
576.238	78.7363
579.131	71.3643
582.023	82.6172
584.916	47.792
587.809	81.2539
590.701	85.2734
593.594	99.0469
596.487	78.1133
599.38	78.9023
602.272	32.6377
605.165	61.1523
608.058	83.0381
610.95	21.1865
613.843	10.6191
616.736	10.8447
619.629	31.4785
622.521	31.5107
625.414	41.2324
628.307	27.7197
631.199	50.4824
634.092	47.6631
636.985	45.0938
639.877	14.6836
642.77	10.5449
645.663	21.4189
648.556	3.64062
651.448	0.900391
654.341	4.5957
657.234	15.294
660.126	58.0859
663.019	49.3799
665.912	29.5225
668.804	7.70312
671.697	30.2725
674.59	47.6758
677.482	33.2168
680.375	15.2744
683.268	40.4141
686.161	14.6406
689.053	20.4355
691.946	24.0811
694.839	9.45898
697.731	76.71
700.624	66.6172
703.517	71.291
706.409	42.9092
709.302	61.4932
712.195	42.5234
715.088	81.7676
717.98	90.2773
720.873	39.3223
723.766	58.0449
726.659	50.916
729.551	38.0898
732.444	33.5859
735.337	35.8477
738.229	79.0312
741.122	59.7695
744.015	64.3066
746.907	26.4062
749.8	14.2861
752.693	1.25781
755.586	10.1357
758.478	25.5176
761.371	41.2842
764.264	48.1025
767.156	4.62305
770.049	28.4561
772.942	29.124
775.835	32.333
778.727	15.9082
781.62	52.8916
784.513	52.6816
787.405	34.2471
790.298	23.1025
793.191	11.2344
796.083	25.9287
798.976	5.68555
801.869	30.9004
804.761	23.3408
807.654	31.3301
810.547	18.7148
813.44	8.19141
816.332	19.8379
819.225	5.81738
822.118	24.7773
825.01	6.84961
827.903	40.7617
830.796	23.0752
833.688	34.71
836.581	21.9463
839.474	59.4707
842.367	32.2324
845.259	45.583
848.152	64.1094
851.045	115.324
853.937	216.835
856.83	405.456
859.723	588.273
862.616	820.981
865.508	1148.64
868.401	1533.02
871.294	1702.49
874.186	1303.55
877.079	776.701
879.972	470.723
882.865	293.451
885.757	254.68
888.65	180.47
891.543	110.107
894.435	77.2148
897.328	66.9121
900.221	117.698
903.113	142.973
906.006	181.763
908.899	204.069
911.792	120.709
914.684	79.3369
917.577	38.2109
920.47	14.1514
923.362	22.2295
926.255	1.16309
929.148	13.2676
932.04	13.0088
934.933	35.5303
937.826	48.3809
940.719	73.751
943.611	90.3027
946.504	111.242
949.397	96.9307
952.289	84.8897
955.182	61.0127
958.075	53.6484
960.967	45.2754
963.86	36.3496
966.753	7.45898
969.646	23.1172
972.538	28.0137
975.431	49.4512
978.324	68.6865
981.216	26.9072
984.109	59.625
987.002	37.1787
989.894	17.1855
992.787	10.3262
995.68	3.73144
998.573	30.7979
1001.47	32.9629
1004.36	10.3477
1007.25	10.4482
1010.14	21.5283
1013.04	13.2588
1015.93	4.99316
1018.82	32.7139
1021.71	19.1758
1024.61	18.0889
1027.5	11.0488
1030.39	17.5225
1033.29	7.79981
1036.18	28.4473
1039.07	4.87988
1041.96	10.3682
1044.86	39.0693
1047.75	46.8926
1050.64	17.5947
1053.53	42.7344
1056.43	28.7295
1059.32	40.8594
1062.21	49.4121
1065.11	38.5547
1068	57.0332
1070.89	77.8193
1073.78	41.7412
1076.68	22.9297
1079.57	5.46973
1082.46	5.10059
1085.35	3.64356
1088.25	21.7822
1091.14	15.6846
1094.03	27.6924
1096.92	15.9111
1099.82	33.9629
1102.71	16.9033
1105.6	20.5986
1108.49	17.8477
1111.39	43.6621
1114.28	28.083
1117.17	26.0654
1120.07	29.665
1122.96	3.77637
1125.85	6.4707
1128.74	22.5156
1131.64	28.8428
1134.53	22.6396
1137.42	34.6074
1140.32	28.2998
1143.21	18.9434
1146.1	36.3105
1148.99	44.8242
1151.89	20.2607
1154.78	2.24512
1157.67	12.5918
1160.56	12.6006
1163.46	0.280273
1166.35	22.0146
1169.24	30.6602
1172.13	23.3516
1175.03	7.95508
1177.92	8.5332
1180.81	5.52246
1183.71	8.24023
1186.6	19.6387
1189.49	22.7021
1192.38	33.5889
1195.28	28.7607
1198.17	28.5488
1201.06	34.3506
1203.95	23.6143
1206.85	34.8369
1209.74	20.9424
1212.63	11.7236
1215.53	35.4316
1218.42	37.0039
1221.31	33.7964
1224.2	22.9229
1227.1	25.854
1229.99	40.4678
1232.88	19.1445
1235.77	17.6645
1238.67	9.26465
1241.56	5.36035
1244.45	13.9653
1247.35	21.977
1250.24	19.9839
1253.13	22.9741
1256.02	25.6377
1258.92	17.772
1261.81	23.8105
1264.7	34.168
1267.59	48.9424
1270.49	43.7803
1273.38	28.8315
1276.27	35.7866
1279.16	16.8291
1282.06	7.47217
1284.95	5.47363
1287.84	5.32519
1290.74	35.5566
1293.63	21.9985
1296.52	12.4683
1299.41	0.552246
