Measurement: Raman, 780 nm, unoriented, Raman Data Processed
Mineral: Wiluite
Rruff sample: R060513
Ideal chemistry: Ca_19_(Al,Mg)_13_(B,[box],Al)_5_(SiO_4_)_10_(Si_2_O_7_)_4_(O,OH)_10_
Locality: Wilui River, Sakha Republic, Russian Federation
Source: Michael Scott
Description: Dark green tetragonal prismatic
Measured chemistry: Ca_19.00_(Al_7.90_Mg_4.67_Ti_0.43_)_Σ=13_(B_3.00_[box]_2.00_)_Σ=5_Si_18.00_O_68_(O_7.76_(OH)_2.24_)_Σ=10_ ; B not measured but estimated by charge balance.
Raman shift (cm-1)	intensity
101.055	0
103.948	0.021545
106.841	5.14734
109.733	3.1781
112.626	4.73114
115.519	13.8934
118.411	16.0638
121.304	12.5351
124.197	13.2852
127.089	8.96332
129.982	7.72107
132.875	7.43634
135.767	10.8233
138.66	10.4732
141.553	13.3544
144.446	7.84271
147.338	9.92102
150.231	10.8153
153.124	8.12787
156.016	6.59131
158.909	8.65442
161.802	8.37354
164.694	12.0848
167.587	20.1708
170.48	22.3769
173.373	17.7657
176.265	12.3166
179.158	11.0335
182.051	17.5875
184.943	18.4678
187.836	6.07605
190.729	4.22815
193.621	2.87036
196.514	3.198
199.407	3.25787
202.299	5.75757
205.192	9.94537
208.085	9.74286
210.978	6.07019
213.87	6.91016
216.763	7.99439
219.656	9.34686
222.548	9.58301
225.441	2.86957
228.334	5.43848
231.226	5.40527
234.119	7.95673
237.012	12.4207
239.905	19.0582
242.797	17.5848
245.69	27.7853
248.583	29.835
251.475	23.7015
254.368	15.4405
257.261	4.26117
260.154	0.643005
263.046	2.08868
265.939	7.01135
268.832	0.016357
271.724	1.67139
274.617	1.64288
277.51	6.28052
280.402	3.29681
283.295	4.41504
286.188	0.33728
289.08	1.94867
291.973	5.57031
294.866	4.06238
297.759	5.3172
300.651	6.47589
303.544	5.23303
306.437	10.9628
309.329	8.42725
312.222	14.2887
315.115	16.9163
318.007	16.8526
320.9	19.7946
323.793	18.4398
326.686	12.2169
329.578	15.467
332.471	7.45612
335.364	14.2271
338.256	18.3487
341.149	12.2772
344.042	18.6681
346.935	22.165
349.827	27.5894
352.72	30.655
355.613	33.8848
358.505	47.478
361.398	53.0588
364.291	54.9602
367.183	61.4332
370.076	66.183
372.969	69.2539
375.861	67.8066
378.754	66.0843
381.647	66.1166
384.54	65.6488
387.432	73.0104
390.325	73.2084
393.218	81.3091
396.11	82.2834
399.003	86.0489
401.896	91.4255
404.788	94.51
407.681	92.4944
410.574	81.4136
413.467	79.9694
416.359	70.4511
419.252	61.9937
422.145	55.8803
425.037	44.8896
427.93	39.6799
430.823	27.9672
433.716	25.3698
436.608	16.4195
439.501	12.134
442.394	4.78052
445.286	1.97083
448.179	0.132507
451.072	6.21979
453.964	3.91113
456.857	3.95306
459.75	5.84021
462.642	3.08283
465.535	1.20332
468.428	0.953247
471.321	5.61432
474.213	6.6275
477.106	5.16229
479.999	4.10809
482.891	4.02692
485.784	7.0542
488.677	9.37622
491.57	11.7076
494.462	12.1409
497.355	17.1543
500.248	17.3961
503.14	21.1131
506.033	24.1246
508.926	29.2694
511.818	31.4535
514.711	35.6234
517.604	28.5111
520.496	17.5223
523.389	19.3943
526.282	16.6736
529.175	22.0519
532.067	18.8359
534.96	17.0308
537.853	23.4343
540.745	27.4105
543.638	25.0672
546.531	25.7663
549.423	25.3815
552.316	27.0519
555.209	28.764
558.102	23.0467
560.994	20.5809
563.887	11.6845
566.78	5.54633
569.672	4.70819
572.565	5.20606
575.458	2.02527
578.351	5.10315
581.243	7.92413
584.136	12.3439
587.029	15.5191
589.921	23.3076
592.814	26.3611
595.707	31.5382
598.599	34.3668
601.492	33.6709
604.385	35.2903
607.278	33.4985
610.17	29.5548
613.063	22.2935
615.956	23.6262
618.848	21.4784
621.741	22.4332
624.634	14.8496
627.526	14.4781
630.419	14.0663
633.312	11.0695
636.205	12.0724
639.097	18.476
641.99	6.34784
644.883	1.5069
647.775	2.13318
650.668	2.00208
653.561	3.49548
656.453	1.40405
659.346	1.71405
662.239	2.48297
665.131	12.2115
668.024	15.1446
670.917	20.7588
673.81	34.3756
676.702	40.3228
679.595	52.6622
682.488	67.5665
685.38	89.2789
688.273	116.009
691.166	147.712
694.058	188.46
696.951	212.935
699.844	199.94
702.737	154.974
705.629	112.773
708.522	73.4788
711.415	46.7367
714.307	27.8103
717.2	16.1068
720.093	16.8639
722.986	17.827
725.878	21.1915
728.771	30.5698
731.664	45.5201
734.556	52.0584
737.449	59.5182
740.342	66.994
743.234	66.9951
746.127	67.3213
749.02	68.5496
751.913	60.3992
754.805	52.1602
757.698	48.0306
760.591	36.866
763.483	29.5994
766.376	22.3761
769.269	13.6912
772.161	13.9003
775.054	10.0948
777.947	5.47864
780.84	1.35126
783.732	0.366089
786.625	1.27576
789.518	3.66693
792.41	1.4126
795.303	4.98785
798.196	0.602661
801.088	1.1225
803.981	0.522278
806.874	5.57324
809.766	6.09576
812.659	5.84674
815.552	4.72888
818.445	9.29492
821.337	11.728
824.23	12.157
827.123	13.5112
830.015	14.3168
832.908	19.0253
835.801	24.2012
838.693	27.6878
841.586	32.329
844.479	36.8168
847.372	31.3732
850.264	35.4811
853.157	33.8602
856.05	35.5368
858.942	42.5377
861.835	40.5519
864.728	41.5681
867.62	47.7411
870.513	50.23
873.406	49.0093
876.299	45.3795
879.191	44.4333
882.084	40.9454
884.977	32.556
887.869	32.0946
890.762	26.4705
893.655	20.4313
896.548	15.5096
899.44	14.146
902.333	15.4629
905.226	18.608
908.118	22.8835
911.011	38.3212
913.904	53.5023
916.796	59.7145
919.689	76.3892
922.582	90.8585
925.474	104.213
928.367	118.537
931.26	135.291
934.153	142.422
937.045	145.939
939.938	141.276
942.831	137.482
945.723	131.672
948.616	123.972
951.509	109.375
954.401	97.1766
957.294	87.3182
960.187	71.645
963.08	60.5284
965.972	49.3405
968.865	42.6802
971.758	31.3454
974.65	25.176
977.543	19.1909
980.436	11.7466
983.328	7.19836
986.221	6.71112
989.114	1.07715
992.006	2.15253
994.899	2.82599
997.792	1.26636
1000.68	6.23846
1003.58	5.34918
1006.47	1.00653
1009.36	1.35895
1012.25	5.9848
1015.15	7.54059
1018.04	9.92718
1020.93	13.6478
1023.83	15.2136
1026.72	15.795
1029.61	22.178
1032.5	23.1519
1035.4	22.3416
1038.29	23.4079
1041.18	22.1615
1044.08	21.3298
1046.97	16.6135
1049.86	12.9559
1052.75	9.57996
1055.65	13.4275
1058.54	5.25848
1061.43	6.74072
1064.32	8.59302
1067.22	1.57568
1070.11	3.53119
1073	6.12512
1075.89	3.26581
1078.79	9.69159
1081.68	7.8122
1084.57	11.3736
1087.47	12.7509
1090.36	14.5491
1093.25	15.1476
1096.14	21.9601
1099.04	19.6592
1101.93	26.6893
1104.82	31.2806
1107.71	37.8439
1110.61	45.6592
1113.5	41.1116
1116.39	37.8912
1119.29	29.9912
1122.18	31.033
1125.07	27.9147
1127.96	25.2743
1130.86	16.9681
1133.75	21.0379
1136.64	15.3285
1139.53	11.8474
1142.43	12.8985
1145.32	10.3115
1148.21	7.97766
1151.11	3.18567
1154	1.04645
1156.89	1.30029
1159.78	1.2063
1162.68	0.559265
1165.57	3.82306
1168.46	1.58624
1171.35	9.41547
1174.25	10.1204
1177.14	13.2072
1180.03	14.0414
1182.92	15.368
1185.82	15.8854
1188.71	13.2889
1191.6	9.00836
1194.49	7.26929
1197.39	3.763
1200.28	3.2951
1203.17	6.04425
1206.07	0.363281
1208.96	0.083435
