Measurement: Raman, 785 nm, unoriented, Raman Data Processed
Mineral: Winchite
Rruff sample: R060704
Ideal chemistry: [box]NaCa(Mg_4_Al)Si_8_O_22_(OH)_2_
Locality: Tirodi mines, Central Provinces, India
Source: Michael Scott
Description: Matted group of tan colored bladed crystals, associated with ferriwinchite
Measured chemistry: ([box]_0.85_Na_0.09_K_0.06_)_Σ=1_(Ca_1.36_Na_0.64_)_Σ=2_(Mg_4.12_Fe^3+^_0.38_Mn_0.23_Fe^2+^_0.16_Al_0.11_)_Σ=5_Si_8.00_O_22_((OH)_1.90_F_0.10_)_Σ=2_ ; = gray phase. The bright phase is ferriwinchite
Raman shift (cm-1)	intensity
208.791	0
211.684	188.961
214.576	140.117
217.469	166.34
220.362	215.711
223.254	203.449
226.147	104.258
229.04	428.606
231.932	1465.73
234.825	1093.87
237.718	645.512
240.611	252.094
243.503	168.926
246.396	129.203
249.289	16.793
252.181	377.949
255.074	821.43
257.967	721.684
260.859	426.418
263.752	397.731
266.645	444.266
269.538	406.953
272.43	225.465
275.323	190.894
278.216	7.04297
281.108	552.969
284.001	745.867
286.894	887.406
289.786	460.367
292.679	149.719
295.572	378.594
298.465	682.156
301.357	955.055
304.25	970.008
307.143	1014.6
310.035	793.445
312.928	514.758
315.821	442.352
318.714	396.141
321.606	384.516
324.499	588.414
327.392	978.336
330.284	995
333.177	824.531
336.07	772.133
338.962	400.602
341.855	458.695
344.748	691.953
347.641	1127.72
350.533	1049.93
353.426	990.414
356.319	487.844
359.211	234.023
362.104	86.3438
364.997	469.727
367.889	1276.05
370.782	2134.71
373.675	2920.85
376.568	2084.11
379.46	806.273
382.353	411.312
385.246	39.2109
388.138	239.711
391.031	678.625
393.924	808.047
396.816	897.742
399.709	797.469
402.602	408.719
405.495	362.734
408.387	283.234
411.28	687.18
414.173	1025.27
417.065	897.281
419.958	878.664
422.851	630.023
425.743	458.906
428.636	555
431.529	490.945
434.422	316.133
437.314	288.938
440.207	228.211
443.1	126.43
445.992	361.227
448.885	205.359
451.778	122.922
454.67	218.938
457.563	129.242
460.456	49.1797
463.349	377.844
466.241	269.602
469.134	332.383
472.027	427.453
474.919	256.906
477.812	336.133
480.705	301.234
483.597	851.969
486.49	392.75
489.383	468.305
492.276	527.711
495.168	727.18
498.061	264.805
500.954	58.9062
503.846	66.0547
506.739	90.9375
509.632	472.82
512.524	573.266
515.417	759.305
518.31	850.922
521.203	740.102
524.095	895.82
526.988	885.242
529.881	1220.2
532.773	1380.27
535.666	1704.51
538.559	2330.98
541.451	2603.38
544.344	2239.53
547.237	1396.57
550.13	948.695
553.022	598.156
555.915	545.578
558.808	562.586
561.7	517.273
564.593	542.109
567.486	452.727
570.378	18.6875
573.271	5.04688
576.164	131.898
579.057	181.43
581.949	533.812
584.842	476.281
587.735	329.023
590.627	305.852
593.52	30.4922
596.413	243.137
599.305	57.9961
602.198	35.4805
605.091	121.871
607.984	13.2617
610.876	70.7578
613.769	230.109
616.662	17.9492
619.554	69.7578
622.447	20.0586
625.34	32.0312
628.232	307.789
631.125	173.637
634.018	132.777
636.911	155.258
639.803	187.711
642.696	130.75
645.589	247.184
648.481	355.644
651.374	339.312
654.267	786.266
657.159	932.769
660.052	1225.54
662.945	1325.53
665.838	1733.88
668.73	2291.09
671.623	2769.46
674.516	3107.51
677.408	3002.03
680.301	2587.82
683.194	1583.44
686.086	1004
688.979	830.875
691.872	640.34
694.765	720.027
697.657	613.644
700.55	539.707
703.443	306.332
706.335	231.332
709.228	88.0078
712.121	50.5625
715.013	182.109
717.906	313.844
720.799	395.711
723.692	441.652
726.584	254.965
729.477	139.402
732.37	103.344
735.262	8.85938
738.155	51.8555
741.048	368.094
743.94	107.723
746.833	359.625
749.726	541.68
752.619	426.027
755.511	242.961
758.404	88.7344
761.297	95.8203
764.189	41.1719
767.082	399.824
769.975	357.074
772.867	391.672
775.76	112.949
778.653	290.789
781.545	379.359
784.438	384.551
787.331	155.457
790.224	129.688
793.116	109.984
796.009	92.875
798.902	89.3672
801.794	60.582
804.687	20.207
807.58	19.9258
810.472	133.473
813.365	50.0898
816.258	90.668
819.151	239.609
822.043	120.762
824.936	52.5312
827.829	51.4883
830.721	142.062
833.614	252.731
836.507	272.031
839.4	192.238
842.292	121.914
845.185	193.762
848.078	190.856
850.97	173.965
853.863	220.582
856.756	250.019
859.648	335.496
862.541	332.555
865.434	166.969
868.327	141.789
871.219	76.4727
874.112	75.1836
877.005	474.656
879.897	417.891
882.79	621.332
885.683	658.66
888.576	497.188
891.468	775.426
894.361	860.856
897.254	925.219
900.146	865.223
903.039	914.754
905.932	931.93
908.824	635.285
911.717	545.91
914.61	410.918
917.503	147.234
920.395	96.9023
923.288	20.4219
926.181	5.09375
929.073	185.344
931.966	248.418
934.859	119.305
937.751	103.207
940.644	1.86328
943.537	69.2422
946.43	2.65625
949.322	226.824
952.215	242.391
955.108	531.531
958	759.273
960.893	966.543
963.786	1537.21
966.678	2194.53
969.571	3124.84
972.464	3914.63
975.357	3830.21
978.249	2635.78
981.142	1627.46
984.035	1240.17
986.927	895.566
989.82	524.086
992.713	333.41
995.605	79.2734
998.498	338.34
1001.39	436.406
1004.28	270.301
1007.18	199.445
1010.07	166.945
1012.96	123.078
1015.85	69.2578
1018.75	33.4453
1021.64	16.0273
1024.53	90.1875
1027.42	129.922
1030.32	376.152
1033.21	106.336
1036.1	291.461
1039	127.273
1041.89	294.559
1044.78	261.938
1047.67	90
1050.57	26.4961
1053.46	443.406
1056.35	757.559
1059.24	481.438
1062.14	368.734
1065.03	101.582
1067.92	154.227
1070.82	97.3242
1073.71	8.16797
1076.6	171.586
1079.49	139.559
1082.39	122.523
1085.28	112.715
1088.17	8.87109
1091.07	75.332
1093.96	416.328
1096.85	434.648
1099.74	403.754
1102.63	216.039
1105.53	159.996
1108.42	162.922
1111.31	257.391
1114.21	278.414
1117.1	464.574
1119.99	275.481
1122.88	193.117
1125.78	303.305
1128.67	457.914
1131.56	221.754
1134.45	367.457
1137.35	179.039
1140.24	168.457
1143.13	300.879
1146.03	204.609
1148.92	321.844
1151.81	311.004
1154.7	161.59
1157.6	174.613
1160.49	317.535
1163.38	224.258
1166.28	185.664
1169.17	69.043
1172.06	351.316
1174.95	110.891
1177.85	97.168
1180.74	55.7812
1183.63	2.60547
1186.52	166.484
1189.42	245.422
1192.31	361.027
1195.2	393.711
1198.09	365.519
1200.99	415.008
1203.88	174.68
1206.77	180.719
1209.66	153.32
1212.56	0.542969
1215.45	20.5039
1218.34	149.914
