Measurement: Raman, 532 nm, unoriented, Raman Data Processed
Mineral: Wodginite
Rruff sample: R130047
Ideal chemistry: Mn^2+^Sn^4+^Ta^5+^_2_O_8_
Locality: Tanco mine (Bernic Lake mine), Bernic Lake, Lac-du-Bonnet area, Manitoba, Canada
Source: Royal Ontario Museum
Description: Black blocky crystals in white microcline
Raman shift (cm-1)	intensity
201.695	201.169
204.588	208.513
207.48	224.983
210.373	236.074
213.266	246.176
216.158	260.614
219.051	280.256
221.944	306.251
224.836	331.099
227.729	351.613
230.622	352.702
233.514	336.803
236.407	317.846
239.3	301.51
242.193	286.176
245.085	276.698
247.978	268.698
250.871	262.519
253.763	261.77
256.656	258.034
259.549	263.721
262.442	266.904
265.334	279.028
268.227	282.761
271.12	279.576
274.012	270.618
276.905	265.664
279.798	268.772
282.69	275.783
285.583	276.842
288.476	262.496
291.368	251.685
294.261	245.436
297.154	249.377
300.047	254.625
302.939	265.862
305.832	281.768
308.725	291.269
311.617	288.614
314.51	272.745
317.403	252.898
320.296	238.981
323.188	230.161
326.081	224.393
328.974	222.666
331.866	227.438
334.759	230.828
337.652	240.153
340.544	250.515
343.437	263.724
346.33	273.385
349.223	278.769
352.115	277.733
355.008	268.663
357.901	258.032
360.793	250.102
363.686	249.758
366.579	252.676
369.471	260.058
372.364	269.285
375.257	283.023
378.149	294.501
381.042	300.637
383.935	306.137
386.828	313.765
389.72	330.869
392.613	347.682
395.506	371.898
398.398	392.569
401.291	417.823
404.184	434.926
407.077	444.338
409.969	436.836
412.862	420.657
415.755	400.741
418.647	388.136
421.54	379.05
424.433	369.569
427.325	351.555
430.218	328.29
433.111	307.803
436.003	293.338
438.896	283.311
441.789	276.182
444.682	268.897
447.574	266.554
450.467	262.322
453.36	259.739
456.252	260.443
459.145	260.478
462.038	258.931
464.93	260.559
467.823	261.759
470.716	258.704
473.609	257.404
476.501	251.032
479.394	245.901
482.287	241.335
485.179	238.11
488.072	234.184
490.965	231.891
493.858	230.168
496.75	228.155
499.643	226.117
502.536	224.853
505.428	223.104
508.321	219.851
511.214	218.788
514.106	217.323
516.999	216.377
519.892	213.161
522.784	212.881
525.677	213.232
528.57	211.991
531.463	212.459
534.355	214.969
537.248	219.21
540.141	223.495
543.033	228.931
545.926	237.225
548.819	244.489
551.712	256.275
554.604	267.918
557.497	279.475
560.39	293.147
563.282	305.007
566.175	318.875
569.068	333.376
571.96	347.173
574.853	360.549
577.746	373.077
580.639	386.415
583.531	393.646
586.424	402.046
589.317	405.104
592.209	403.266
595.102	401.854
597.995	396.145
600.888	389.483
603.78	384.884
606.673	384.735
609.566	381.329
612.458	387.628
615.351	392.006
618.244	402.226
621.136	411.747
624.029	423.201
626.922	435.026
629.814	441.565
632.707	451.968
635.6	458.383
638.493	461.968
641.385	461.218
644.278	456.85
647.171	454.714
650.063	449.933
652.956	447.125
655.849	442.015
658.741	434.668
661.634	423.084
664.527	412.029
667.42	395.084
670.312	380.005
673.205	359.932
676.098	343.276
678.99	325.823
681.883	311.855
684.776	298.074
687.668	283.887
690.561	274.014
693.454	263.294
696.347	252.833
699.239	244.808
702.132	234.505
705.025	227.978
707.917	223.315
710.81	218.797
713.703	215.345
716.596	213.49
719.488	214.323
722.381	217.94
725.274	219.776
728.166	224.329
731.059	229.72
733.952	235.044
736.844	239.925
739.737	242.568
742.63	244.665
745.523	244.962
748.415	243.659
751.308	241.967
754.201	241.725
757.093	240.261
759.986	242.02
762.879	240.582
765.771	241.282
768.664	240.496
771.557	242.503
774.449	240.162
777.342	242.74
780.235	239.855
783.128	240.685
786.02	242.453
788.913	240.988
791.806	239.939
794.698	243.479
797.591	243.327
800.484	244.02
803.376	245.687
806.269	248.241
809.162	252.267
812.055	256.591
814.947	260.569
817.84	265.53
820.733	274.424
823.625	282.012
826.518	291.471
829.411	297.173
832.303	306.309
835.196	312.554
838.089	317.858
840.982	323.291
843.874	322.315
846.767	324.523
849.66	322.445
852.552	326.062
855.445	329.601
858.338	339.595
861.231	348.714
864.123	360.324
867.016	365.734
869.909	360.246
872.801	336.168
875.694	297.676
878.587	250.878
881.479	211.989
884.372	178.544
887.265	153.939
890.158	135.111
893.05	122.338
895.943	110.339
898.836	103.659
901.728	96.0235
904.621	91.8014
907.514	87.7289
910.406	84.6348
913.299	82.8589
916.192	78.3007
919.085	77.8252
921.977	76.9373
924.87	74.3646
927.763	73.7294
930.655	73.2272
933.548	72.0073
936.441	70.9467
939.333	71.1116
942.226	69.1434
945.119	67.8394
948.011	68.0374
950.904	67.1739
953.797	65.7054
956.69	65.481
959.582	66.6012
962.475	65.2812
965.368	64.5076
968.26	64.0702
971.153	63.929
974.046	63.2466
976.938	63.7843
979.831	61.7691
982.724	63.1643
985.617	62.9318
988.509	62.2504
991.402	60.9742
994.295	61.3526
997.187	61.0565
1000.08	60.0427
1002.97	59.4634
1005.87	60.3767
1008.76	58.8541
1011.65	59.4971
1014.54	60.2673
1017.44	59.34
1020.33	59.7674
1023.22	59.9783
1026.11	58.4027
1029.01	59.7707
1031.9	57.7098
1034.79	58.8911
1037.68	57.9822
1040.58	58.3762
1043.47	58.1628
1046.36	59.2144
1049.26	58.7554
1052.15	58.0512
1055.04	58.0459
1057.93	59.0724
1060.83	58.0221
1063.72	57.9678
1066.61	58.4901
1069.51	58.5252
1072.4	56.394
1075.29	56.3679
1078.18	56.0582
1081.08	57.2348
1083.97	56.4468
1086.86	56.9841
1089.75	57.6155
1092.65	56.4661
1095.54	56.5304
1098.43	57.2543
1101.33	57.1754
1104.22	56.9114
1107.11	55.6392
1110	56.5184
1112.89	57.9363
1115.79	54.925
1118.68	55.8498
1121.57	55.0615
1124.47	55.7468
1127.36	55.3809
1130.25	55.6335
1133.14	54.4099
1136.04	54.6739
1138.93	54.8726
1141.82	55.3002
1144.71	56.1741
1147.61	54.2085
1150.5	54.9527
1153.39	53.5489
1156.29	53.9999
1159.18	54.9075
1162.07	54.2897
1164.96	54.3232
1167.86	53.5367
1170.75	53.1159
1173.64	53.268
1176.54	53.8732
1179.43	54.0432
1182.32	53.0414
1185.21	53.359
1188.11	52.443
1191	52.3022
1193.89	52.3844
1196.78	52.6887
1199.68	52.8504
1202.57	52.5804
1205.46	53.8548
1208.35	52.8862
1211.25	52.7165
1214.14	52.1284
1217.03	52.8772
1219.92	52.9189
1222.82	52.0865
1225.71	50.3527
1228.6	51.1864
1231.5	51.1795
1234.39	51.3715
1237.28	51.4139
1240.17	50.8331
1243.07	52.069
1245.96	51.5729
1248.85	50.6746
1251.74	51.2214
1254.64	50.2899
1257.53	50.7967
1260.42	50.6729
1263.32	49.9845
1266.21	50.3798
1269.1	50.9105
1271.99	50.1032
1274.89	50.1136
1277.78	49.951
1280.67	48.9657
1283.57	51.0883
1286.46	49.8664
1289.35	50.704
1292.24	50.865
1295.13	50.001
1298.03	49.7092
1300.92	49.4386
