Measurement: Raman, 780 nm, unoriented, Raman Data Processed
Mineral: Wodginite
Rruff sample: R130047
Ideal chemistry: Mn^2+^Sn^4+^Ta^5+^_2_O_8_
Locality: Tanco mine (Bernic Lake mine), Bernic Lake, Lac-du-Bonnet area, Manitoba, Canada
Source: Royal Ontario Museum
Description: Black blocky crystals in white microcline
Raman shift (cm-1)	intensity
99.3956	502.809
102.77	523.836
106.145	546.77
109.52	566.96
112.895	602.886
116.27	577.39
119.644	529.35
123.019	514.136
126.394	494.925
129.769	438.604
133.144	386.232
136.518	358.748
139.893	338.959
143.268	322.212
146.643	316.613
150.018	313.791
153.393	315.436
156.767	324.169
160.142	333.317
163.517	324.919
166.892	319.528
170.267	320.38
173.642	334.637
177.016	347.277
180.391	340.915
183.766	324.557
187.141	315.861
190.516	311.976
193.89	305.915
197.265	289.483
200.64	278.541
204.015	275.227
207.39	277.685
210.764	282.853
214.139	290.739
217.514	304.013
220.889	324.301
224.264	346.067
227.638	355.852
231.013	360.286
234.388	348.363
237.763	334.579
241.138	321.145
244.513	314.569
247.887	306.975
251.262	301.798
254.637	299.932
258.012	304.17
261.387	309.642
264.762	316.323
268.136	322.902
271.511	321.479
274.886	320.273
278.261	330.439
281.635	346.423
285.01	347.784
288.385	324.826
291.76	307.914
295.135	306.506
298.51	320.965
301.884	343.469
305.259	374.997
308.634	397.342
312.009	378.472
315.384	332.609
318.759	293.392
322.133	274.144
325.508	262.18
328.883	256.916
332.258	256.309
335.633	263.533
339.007	269.816
342.382	282.326
345.757	288.379
349.132	294.044
352.507	290.251
355.882	283.042
359.256	274.934
362.631	271.688
366.006	274.622
369.381	286.067
372.755	297.587
376.13	312.332
379.505	328.073
382.88	334.546
386.255	350.244
389.63	369.992
393.004	399.305
396.379	429.873
399.754	468.075
403.129	492.159
406.504	507.858
409.878	491.623
413.253	464.471
416.628	441.452
420.003	429.246
423.378	419.711
426.753	394.079
430.127	368.241
433.502	343.808
436.877	325.265
440.252	308.792
443.627	300.043
447.001	292.098
450.376	286.723
453.751	283.012
457.126	281.291
460.501	278.771
463.875	277.787
467.25	277.86
470.625	274.81
474	271.25
477.375	267.533
480.75	261.509
484.124	256.648
487.499	254.578
490.874	251.685
494.249	247.991
497.624	245.429
500.998	241.491
504.373	241.839
507.748	237.065
511.123	235.87
514.498	235.462
517.873	231.993
521.247	229.565
524.622	229.318
527.997	230.027
531.372	227.215
534.747	230.882
538.121	234.134
541.496	242.435
544.871	249.514
548.246	259.516
551.621	270.473
554.995	282.897
558.37	299.33
561.745	314.29
565.12	329.518
568.495	343.826
571.87	361.018
575.244	375.444
578.619	391.469
581.994	405.226
585.369	416.965
588.744	419.695
592.119	419.923
595.493	413.957
598.868	408.402
602.243	406.805
605.618	404.608
608.993	406.567
612.367	411.895
615.742	420.399
619.117	433.551
622.492	450.964
625.867	463.294
629.241	480.638
632.616	495.546
635.991	504.649
639.366	503.947
642.741	499.666
646.115	497.047
649.49	496.208
652.865	485.706
656.24	478.878
659.615	466.068
662.99	447.135
666.364	426.462
669.739	403.392
673.114	378.915
676.489	354.61
679.864	337.861
683.239	321.05
686.613	302.82
689.988	289.144
693.363	276.38
696.738	263.173
700.112	255.511
703.487	247.859
706.862	240.423
710.237	235.231
713.612	232.366
716.987	231.382
720.361	233.453
723.736	235.19
727.111	240.312
730.486	247.041
733.861	248.773
737.236	250.379
740.61	250.687
743.985	252.641
747.36	249.632
750.735	246.97
754.11	244.277
757.484	240.833
760.859	241.365
764.234	242.366
767.609	241.849
770.984	240.703
774.359	237.745
777.733	235.722
781.108	236.482
784.483	235.2
787.858	233.834
791.232	237.408
794.607	231.735
797.982	231.103
801.357	231.18
804.732	232.302
808.107	234.939
811.481	238.565
814.856	241.909
818.231	249.577
821.606	257.131
824.981	262.936
828.356	272.512
831.73	280.581
835.105	289.131
838.48	291.751
841.855	293.296
845.23	291.575
848.604	287.579
851.979	287.744
855.354	287.873
858.729	296.689
862.104	302.637
865.479	312.367
868.853	305.864
872.228	281.224
875.603	243.018
878.978	204.414
882.352	169.237
885.727	145.529
889.102	126.445
892.477	111.088
895.852	101.914
899.227	94.8931
902.601	88.3735
905.976	84.8785
909.351	80.9026
912.726	79.1649
916.101	76.4675
919.476	74.3898
922.85	73.1091
926.225	72.586
929.6	70.2461
932.975	69.667
936.35	67.9203
939.724	68.1828
943.099	66.7359
946.474	65.1703
949.849	65.3648
953.224	64.6373
956.598	63.2645
959.973	62.8165
963.348	62.3703
966.723	62.6827
970.098	61.635
973.472	61.6246
976.847	60.4798
980.222	60.7061
983.597	60.4642
986.972	59.2778
990.347	59.2891
993.721	59.1193
997.096	58.6929
1000.47	57.9045
1003.85	58.9045
1007.22	58.3183
1010.6	58.0459
1013.97	57.4085
1017.35	57.4547
1020.72	57.1329
1024.1	57.1863
1027.47	56.0242
1030.84	56.8114
1034.22	55.3389
1037.59	55.7339
1040.97	56.2444
1044.34	56.6186
1047.72	56.6734
1051.09	55.8972
1054.47	57.1022
1057.84	56.2801
1061.22	55.4451
1064.59	54.0449
1067.97	53.9341
1071.34	55.4699
1074.72	55.1476
1078.09	54.3867
1081.47	54.114
1084.84	54.7837
1088.22	54.8732
1091.59	54.2091
1094.97	54.0831
1098.34	53.9047
1101.71	53.955
1105.09	53.3386
1108.46	53.2582
1111.84	54.0832
1115.21	56.6583
1118.59	52.6653
1121.96	52.6238
1125.34	52.5348
1128.71	52.9026
1132.09	52.6993
1135.46	51.8492
1138.84	53.4679
1142.21	52.1496
1145.59	52.8064
1148.96	51.6723
1152.34	51.2256
1155.71	51.6029
1159.09	52.4399
1162.46	51.4324
1165.84	51.7147
1169.21	52.3541
1172.59	51.2751
1175.96	51.1444
1179.34	51.8702
1182.71	51.3446
1186.09	51.8972
1189.46	52.2602
1192.84	51.6089
1196.21	51.414
1199.59	50.9183
1202.96	51.5261
1206.34	51.4266
1209.71	49.5684
1213.08	51.1201
1216.46	51.2469
1219.83	50.8727
1223.21	51.5443
1226.58	51.5487
1229.96	51.2193
1233.33	50.4208
1236.71	50.6266
1240.08	50.2762
1243.46	50.2154
1246.83	49.9791
1250.21	49.1673
1253.58	49.6884
1256.96	49.652
1260.33	49.9043
1263.71	50.1685
1267.08	51.3063
1270.46	51.0357
1273.83	49.6336
1277.21	50.0211
1280.58	50.6715
1283.95	49.9484
