Measurement: Raman, 532 nm, unoriented, Raman Data Processed
Mineral: Wollastonite
Rruff sample: R120016
Ideal chemistry: CaSiO_3_
Locality: Saint-Sauveur Graphite occurrence, Saint-Sauveur, Les Pays-d'en-Haut RCM, Laurentides, Qu√©bec, Canada
Source: Donald Doell
Description: Massive aggregate of colorless parallel acicular crystals
Raman shift (cm-1)	intensity
294.91	0
297.802	26.1562
300.695	714.188
303.588	2624.69
306.481	2688.75
309.373	1571.62
312.266	1312.88
315.159	2434.81
318.051	4388.31
320.944	4435.97
323.837	4402.78
326.729	4774.81
329.622	5643.94
332.515	7644.94
335.408	11743.4
338.3	11766.9
341.193	8238.41
344.086	5877.03
346.978	2814.78
349.871	1277.38
352.764	391.844
355.656	972.5
358.549	478.344
361.442	59.75
364.334	118.75
367.227	160.5
370.12	207.781
373.012	469.531
375.905	176.062
378.798	27.0312
381.691	264.938
384.583	1730.06
387.476	3167.66
390.369	3855
393.261	2501.31
396.154	2319.81
399.047	3574.94
401.94	4484.31
404.832	5603.62
407.725	4392.22
410.618	3236.88
413.51	2910.31
416.403	2004.59
419.296	376.875
422.188	77.2812
425.081	169.406
427.974	828.562
430.866	1476.84
433.759	807.875
436.652	579.375
439.545	399.812
442.437	1598.56
445.33	1738.25
448.223	1671.53
451.115	837.875
454.008	374
456.901	726.281
459.793	1359.62
462.686	1424.34
465.579	1390.97
468.472	770.656
471.364	525.625
474.257	237.719
477.15	91.1875
480.042	251.844
482.935	384.062
485.828	350.125
488.721	382.5
491.613	771.25
494.506	1882.44
497.399	2400.47
500.291	2558.47
503.184	1805.34
506.077	1731.66
508.969	2213.19
511.862	2272.22
514.755	1297.75
517.648	246.719
520.54	31.6875
523.433	662.906
526.326	1377.53
529.218	1443.97
532.111	401.688
535.004	191.281
537.896	115.156
540.789	449.562
543.682	769.719
546.575	673.406
549.467	1415.78
552.36	1536.72
555.253	1366.16
558.145	942.969
561.038	511.812
563.931	479.406
566.823	734.969
569.716	334.344
572.609	28.875
575.502	957.75
578.394	2086.41
581.287	3672.91
584.18	2203.81
587.072	2831.5
589.965	1638.09
592.858	1561.62
595.75	1370.91
598.643	689.594
601.536	84.75
604.428	314
607.321	94.4688
610.214	975.906
613.107	1179.81
615.999	1030.75
618.892	1952.03
621.785	3568.56
624.677	4904.47
627.57	7223.72
630.463	12201.8
633.356	19493.8
636.248	25842
639.141	20804.9
642.034	9396.25
644.926	3608.16
647.819	1931.88
650.712	514.969
653.604	1065.72
656.497	941.375
659.39	991.844
662.283	596.812
665.175	110.094
668.068	163.5
670.961	566.562
673.853	894.531
676.746	980.781
679.639	1836.25
682.531	3747.72
685.424	4579.94
688.317	5362.44
691.21	5739.12
694.102	3868.56
696.995	3479.88
699.888	2980.28
702.78	1763.41
705.673	1645.19
708.566	2309.5
711.458	2753.78
714.351	1897.69
717.244	766.156
720.136	94.25
723.029	481.469
725.922	1445.81
728.815	2737.75
731.707	2014.12
734.6	1965.5
737.493	656.312
740.385	940.531
743.278	409.281
746.171	504.469
749.063	527.281
751.956	2066.91
754.849	2354.16
757.742	2717.69
760.634	1804.59
763.527	1702.59
766.42	1304.94
769.312	1533.91
772.205	1424.16
775.098	1581.62
777.99	1499.16
780.883	1803.16
783.776	1330.78
786.669	1134.12
789.561	187.562
792.454	1145.97
795.347	1423.59
798.239	524.469
801.132	186.375
804.025	52.0938
806.918	665.062
809.81	1340.06
812.703	717.344
815.596	1382.66
818.488	1563.75
821.381	2420.5
824.274	1479.66
827.166	869.594
830.059	510.5
832.952	1087.81
835.845	840.906
838.737	205.969
841.63	353.719
844.523	143.219
847.415	301.312
850.308	118.438
853.201	403.531
856.093	867
858.986	993.531
861.879	1465.97
864.771	1209.78
867.664	196.125
870.557	794.719
873.45	1354.28
876.342	1479.41
879.235	766.938
882.128	1089.97
885.02	1957.31
887.913	2950.5
890.806	2763.56
893.698	1786.44
896.591	1477.97
899.484	1319.47
902.377	1051.22
905.269	2054.53
908.162	2687.09
911.055	2933.94
913.947	2908.53
916.84	3007.22
919.733	2625.44
922.625	2134.94
925.518	2411.31
928.411	2104.53
931.304	1497.66
934.196	354.438
937.089	875.25
939.982	63.4375
942.875	488.594
945.767	1217.78
948.66	445.188
951.553	1075.03
954.445	2437.41
957.338	2777.88
960.231	5863.97
963.123	10757.4
966.016	18760.3
968.909	33493.4
971.802	38572.6
974.694	16451.1
977.587	6659.94
980.48	4950.59
983.372	2761.28
986.265	2166
989.158	2740.59
992.05	3513.44
994.943	4091.22
997.836	3430.66
1000.73	2598.19
1003.62	184.688
1006.51	755
1009.41	669.125
1012.3	375.156
1015.19	164.625
1018.09	866.656
1020.98	2645.72
1023.87	2989.53
1026.76	1704.09
1029.66	1665
1032.55	1806.62
1035.44	4810.03
1038.33	5091.06
1041.23	6596.03
1044.12	11287.9
1047.01	11101.8
1049.9	5848.47
1052.8	3444.81
1055.69	2476.69
1058.58	2590.69
1061.47	1829.69
1064.37	2578.25
1067.26	1249.47
1070.15	1404.47
1073.05	222.281
1075.94	577.125
1078.83	10
1081.72	202.219
1084.62	430.562
1087.51	382.156
1090.4	181.25
1093.3	364.219
1096.19	682.5
1099.08	1464.59
1101.97	1242.03
1104.87	785.406
1107.76	769.875
1110.65	1175.19
1113.54	1518.59
1116.44	1408.22
1119.33	1564.34
1122.22	1574.72
1125.12	917.938
1128.01	1180.19
1130.9	8.65625
1133.79	80.7188
1136.68	1291.19
1139.58	1676.97
1142.47	1392.03
1145.36	310.625
1148.26	987.25
1151.15	1303.84
1154.04	1167.31
1156.93	862.156
1159.83	333.438
1162.72	900.844
1165.61	998
1168.51	503.938
1171.4	702.562
1174.29	787.562
1177.18	1518.31
1180.08	1146.97
1182.97	1640.59
1185.86	2557.06
1188.75	2185.97
1191.65	1455.78
1194.54	1482.25
1197.43	1732.12
1200.33	1718.12
1203.22	1247.84
1206.11	2635
1209	3038.72
1211.9	3042.34
1214.79	2570.09
1217.68	1245.56
1220.57	1149.5
1223.47	1449.66
1226.36	2070
1229.25	1260.25
1232.14	1146.34
1235.04	70
1237.93	219.344
1240.82	409.562
1243.71	1307.94
1246.61	941.938
1249.5	527.719
1252.39	1060.94
1255.29	1402.88
1258.18	1810.97
1261.07	1265.5
1263.96	1917.5
1266.86	936.219
1269.75	1504.53
1272.64	706.812
1275.54	1072.62
1278.43	930.281
1281.32	1.125
1284.21	260.156
1287.11	313.562
1290	584.531
1292.89	552.125
1295.78	670.531
1298.68	1403.34
1301.57	348.469
