Measurement: Raman, 532 nm, unoriented, Raman Data Processed
Mineral: Wollastonite
Rruff sample: R040008
Ideal chemistry: CaSiO_3_
Locality: Lake Baikal, Siberia, Russia
Source: University of Arizona Mineral Museum
Description: 2M polytype. Colorless parallel acicular crystals
Measured chemistry: Ca_1.00_Si_1.00_O_3_; trace amounts of Fe and Mn
Raman shift (cm-1)	intensity
178.412	0
181.305	112.144
184.198	297.535
187.09	536.844
189.983	543.656
192.876	617.606
195.768	326.18
198.661	294.125
201.554	202.047
204.446	131.57
207.339	126.805
210.232	25.9141
213.125	46.0078
216.017	104.477
218.91	220.188
221.803	179.949
224.695	169.84
227.588	284.816
230.481	381.34
233.373	271.004
236.266	331.945
239.159	294.883
242.052	400.516
244.944	770.434
247.837	721.801
250.73	557.551
253.622	304.055
256.515	66.6523
259.408	259.078
262.3	330.969
265.193	267.992
268.086	84.7773
270.978	82.7812
273.871	252.312
276.764	256.672
279.657	728.461
282.549	594.559
285.442	287.418
288.335	324.766
291.227	253.133
294.12	240.762
297.013	120.207
299.906	501.246
302.798	985.516
305.691	1160.68
308.584	838.449
311.476	698.539
314.369	804.176
317.262	1037.39
320.154	1304.89
323.047	1329.42
325.94	1159.15
328.832	1171.88
331.725	1335.14
334.618	1683.98
337.51	2034.31
340.403	1763.11
343.296	1411.21
346.189	525.68
349.081	518.738
351.974	494.965
354.867	84.9492
357.759	108.484
360.652	1.05859
363.545	246.613
366.438	0.304688
369.33	113.125
372.223	39.8945
375.116	105.746
378.008	261.715
380.901	43.5234
383.794	315.715
386.686	715.098
389.579	1173
392.472	1106.98
395.365	1329.67
398.257	1902.21
401.15	2733.82
404.043	3600.97
406.935	4897.77
409.828	6798.45
412.721	8234.31
415.613	6189.24
418.506	3517
421.399	1928.57
424.291	1169.61
427.184	759.871
430.077	392.68
432.97	382.668
435.862	264.699
438.755	371.926
441.648	367.578
444.54	323.906
447.433	191.203
450.326	170.516
453.218	260.719
456.111	265
459.004	36.4023
461.897	242.797
464.789	499.305
467.682	1034.53
470.575	685.133
473.467	426.781
476.36	167.031
479.253	127.68
482.145	231.242
485.038	443.5
487.931	186.945
490.824	2.3125
493.716	168.055
496.609	148.516
499.502	70.0938
502.394	122.094
505.287	21.8203
508.18	127.938
511.072	3.96094
513.965	21.9688
516.858	213.766
519.75	518.734
522.643	646.219
525.536	339.266
528.429	584.445
531.321	404.469
534.214	223.266
537.107	149.398
539.999	239.484
542.892	894
545.785	687.273
548.678	758.648
551.57	693.648
554.463	709.805
557.356	792.438
560.248	591.336
563.141	1283.35
566.034	1475.76
568.926	1374.23
571.819	1354.02
574.712	1570.95
577.604	1334.46
580.497	1690.61
583.39	1887.66
586.283	2270.98
589.175	2535.48
592.068	2284.98
594.961	2781.05
597.853	2856.97
600.746	3289.45
603.639	3721.07
606.531	4420.94
609.424	4726.23
612.317	5352.03
615.21	5261.18
618.102	5959.26
620.995	6625.11
623.888	7579.76
626.78	8553.34
629.673	9704.31
632.566	11422.8
635.458	13615.8
638.351	11570
641.244	6926.73
644.136	4122.22
647.029	2960.36
649.922	2395.55
652.815	1905.94
655.707	1142.57
658.6	791.328
661.493	396.852
664.385	17.6016
667.278	201.609
670.171	158.898
673.063	30.7891
675.956	358.758
678.849	151.578
681.742	49.5781
684.634	406.375
687.527	471.797
690.42	616.492
693.312	692.602
696.205	642.164
699.098	73.2578
701.99	229.336
704.883	253.109
707.776	288.125
710.669	306.281
713.561	380.625
716.454	427.695
719.347	299.172
722.239	348.297
725.132	350.211
728.025	207.258
730.917	311.5
733.81	202.344
736.703	111.211
739.596	94.375
742.488	145.914
745.381	273.859
748.274	679.891
751.166	3.03125
754.059	167.852
756.952	155.875
759.844	87.4453
762.737	303.102
765.63	1.48438
768.523	313.398
771.415	511.875
774.308	297.672
777.201	222.164
780.093	382.836
782.986	587.93
785.879	578.359
788.771	1033.06
791.664	1230.01
794.557	1511.59
797.449	1603.45
800.342	1540.66
803.235	1619.79
806.128	2269.05
809.02	2793.57
811.913	3230.05
814.806	3995.7
817.698	4689.72
820.591	5342.66
823.484	5694.18
826.376	5661.34
829.269	6010.9
832.162	5478.9
835.055	5115.02
837.947	4975.02
840.84	4471.5
843.733	4038.25
846.625	3551.82
849.518	2622.38
852.411	2031.14
855.303	1764.62
858.196	1760.49
861.089	1693.65
863.982	1656.45
866.874	1179.26
869.767	1059.62
872.66	860.734
875.552	733.727
878.445	968.867
881.338	1054.54
884.23	1263.42
887.123	1755.81
890.016	2103.48
892.909	2095.14
895.801	1735.54
898.694	1181.42
901.587	601.188
904.479	331.008
907.372	199.273
910.265	140.797
913.157	82.7188
916.05	123.133
918.943	136.367
921.836	323.352
924.728	492.523
927.621	646.75
930.514	673.859
933.406	291.039
936.299	213.359
939.192	259.992
942.084	159.414
944.977	75.2578
947.87	43.6172
950.763	114.938
953.655	320.078
956.548	987.359
959.441	2192.75
962.333	4106.12
965.226	8360.13
968.119	14769.4
971.011	19103.8
973.904	7899.36
976.797	3109.5
979.689	1654.25
982.582	907.422
985.475	401.234
988.368	161.234
991.26	61.3438
994.153	280.117
997.046	715.43
999.938	610.555
1002.83	389.586
1005.72	277.773
1008.62	113.039
1011.51	11.9297
1014.4	47.3438
1017.29	73.1484
1020.19	238.734
1023.08	496.547
1025.97	591.594
1028.87	559.312
1031.76	623.727
1034.65	441.953
1037.54	918.227
1040.44	1264.45
1043.33	1343.09
1046.22	964.594
1049.11	487.086
1052.01	834.203
1054.9	798.297
1057.79	987.766
1060.68	1032.23
1063.58	148.719
1066.47	133.312
1069.36	189.18
1072.26	357.578
1075.15	197.344
1078.04	181.273
1080.93	100.875
1083.83	196.297
1086.72	478.836
1089.61	385.797
1092.51	447.445
1095.4	838.422
1098.29	593.508
1101.18	911.688
1104.08	1150.79
1106.97	864.672
1109.86	636.133
1112.75	408.242
1115.65	543.898
1118.54	503.703
1121.43	160.93
1124.32	287.016
1127.22	680.492
1130.11	1165.77
1133	1173.38
1135.89	727.133
1138.79	339.656
1141.68	843.836
1144.57	270
1147.47	456.344
1150.36	380.219
1153.25	626.562
1156.14	887.492
1159.04	508.414
1161.93	508.195
1164.82	20.6172
1167.71	12.5
1170.61	280.977
1173.5	825.789
1176.39	864.516
1179.29	831.547
1182.18	790
1185.07	886.812
1187.96	552.906
1190.86	290.078
1193.75	364.523
1196.64	28.9531
1199.54	81.25
1202.43	293.656
1205.32	310.344
1208.21	437.281
1211.11	605.016
1214	602.664
1216.89	228.641
1219.78	226.922
1222.68	274.562
1225.57	166.203
1228.46	77.2266
1231.35	402.461
1234.25	338.031
1237.14	273.914
1240.03	159.508
1242.92	163.555
1245.82	32.9531
