Measurement: Raman, 532 nm, unoriented, Raman Data Processed
Mineral: Wollastonite
Rruff sample: R040131
Ideal chemistry: CaSiO_3_
Locality: In-Ne-Koh-Pah Gorge, Jacumba, San Diego County, California, USA
Source: University of Arizona Mineral Museum
Description: White coarsely crystalline massive
Measured chemistry: Ca_1.01_Si_1.00_O_3_
Raman shift (cm-1)	intensity
171.839	0
174.732	34.7441
177.625	89.3066
180.517	39.8535
183.41	73.7012
186.303	171.326
189.195	213.246
192.088	220.441
194.981	248.1
197.874	218.387
200.766	258.486
203.659	178.815
206.552	240.732
209.444	255.15
212.337	205.85
215.23	115.283
218.122	229.047
221.015	151.676
223.908	266.459
226.8	267.242
229.693	246.281
232.586	275.768
235.479	189.143
238.371	272.897
241.264	148.641
244.157	235.68
247.049	185.346
249.942	150.566
252.835	261.9
255.727	111.863
258.62	137.43
261.513	185.06
264.406	121.941
267.298	110.588
270.191	41.873
273.084	160.717
275.976	183.545
278.869	153.981
281.762	306.406
284.655	184.039
287.547	194.342
290.44	227.141
293.333	230.949
296.225	217.531
299.118	309.904
302.011	380.041
304.904	429.789
307.796	201.178
310.689	201.453
313.582	304.291
316.474	340.441
319.367	329.185
322.26	368.18
325.152	164.848
328.045	324.744
330.938	255.812
333.83	400.066
336.723	399.461
339.616	199.582
342.509	222.141
345.401	220.33
348.294	79.0254
351.187	49.4453
354.079	77.2441
356.972	81.1211
359.865	45.4746
362.757	33.373
365.65	90.3457
368.543	15.6094
371.436	87.8516
374.328	119.106
377.221	180.303
380.114	149.596
383.006	229.647
385.899	212.144
388.792	224.719
391.685	204.606
394.577	263.426
397.47	360.568
400.363	471.391
403.255	669.422
406.148	922.33
409.041	934.287
411.933	997.613
414.826	816.053
417.719	448.176
420.611	183.537
423.504	212.422
426.397	206.289
429.29	83.9746
432.182	75.1055
435.075	229.117
437.968	38.3281
440.86	128.99
443.753	166.338
446.646	25.8477
449.538	250.231
452.431	71.8242
455.324	96.0117
458.217	173.102
461.109	155.766
464.002	302.438
466.895	265.746
469.787	203.672
472.68	142.297
475.573	306.184
478.466	198.047
481.358	166.621
484.251	291.957
487.144	276.191
490.036	228.481
492.929	158.41
495.822	97.2734
498.714	105.148
501.607	133.902
504.5	187.125
507.393	97.5664
510.285	134.168
513.178	109.926
516.071	10.0078
518.963	80.9375
521.856	38.7812
524.749	32.7617
527.641	108.269
530.534	12.1602
533.427	116.992
536.32	9.73438
539.212	40.2031
542.105	35.1094
544.998	40.9727
547.89	83.6875
550.783	149.191
553.676	93.6211
556.568	98.4453
559.461	30.6094
562.354	39.5508
565.247	10.9492
568.139	94.5078
571.032	13.293
573.925	47.2227
576.817	133.699
579.71	55.3242
582.603	172.492
585.495	178.516
588.388	169.019
591.281	28.2891
594.174	69.6562
597.066	141.844
599.959	169.231
602.852	48.5
605.744	179.289
608.637	158.926
611.53	171.535
614.423	283.266
617.315	327.453
620.208	438.82
623.101	784.621
625.993	1106.78
628.886	1679.29
631.779	2226.84
634.671	2586.6
637.564	2374.88
640.457	1385.68
643.35	593.859
646.242	481.519
649.135	413.402
652.028	442.746
654.92	486.938
657.813	307.793
660.706	490.547
663.598	379.996
666.491	268
669.384	250.262
672.277	241.769
675.169	236.586
678.062	228.422
680.955	168.457
683.847	264.859
686.74	169.094
689.633	300.144
692.525	117.473
695.418	147.191
698.311	145.629
701.204	87.8047
704.096	141.914
706.989	260.082
709.882	141.262
712.774	126.152
715.667	100.887
718.56	80.1836
721.452	68.3789
724.345	39.125
727.238	72.5898
730.131	133.465
733.023	9.49609
735.916	21.0234
738.809	146.863
741.701	139.258
744.594	40.1172
747.487	56.1562
750.38	60.5312
753.272	73.6094
756.165	167.312
759.058	59.4375
761.95	159.367
764.843	243.602
767.736	17.7383
770.628	183.418
773.521	119.836
776.414	306.809
779.307	146.129
782.199	125.305
785.092	137.539
787.985	184.266
790.877	95.9609
793.77	56.3711
796.663	165.969
799.555	185.613
802.448	173.227
805.341	28.3438
808.234	163.348
811.126	125.734
814.019	182.961
816.912	72.8203
819.804	285.172
822.697	244.211
825.59	54.7812
828.482	179.715
831.375	94.5273
834.268	138.566
837.16	175.664
840.053	39.9727
842.946	126.809
845.839	164.746
848.731	225.348
851.624	18.5234
854.517	98.0664
857.409	131.301
860.302	0.453125
863.195	193.316
866.087	4.27344
868.98	107.289
871.873	197.074
874.766	49.6367
877.658	64.3008
880.551	140.191
883.444	319.562
886.337	337.734
889.229	424.312
892.122	246.09
895.015	98.5078
897.907	142.098
900.8	164.269
903.693	47.9375
906.585	72.7305
909.478	129.879
912.371	213.793
915.264	115.676
918.156	24.125
921.049	123.281
923.942	201.09
926.834	2.94141
929.727	94.7852
932.62	179.414
935.512	3.98828
938.405	122.277
941.298	172.16
944.191	132.965
947.083	40.0039
949.976	88.8867
952.869	173.914
955.761	372.109
958.654	808.797
961.547	1647.77
964.439	3036.6
967.332	4599.28
970.225	5059.81
973.117	2110.55
976.01	909.09
978.903	507.359
981.796	305.926
984.688	342.664
987.581	298.734
990.474	243.211
993.366	202.398
996.259	274.41
999.152	454.648
1002.04	302.434
1004.94	327.555
1007.83	521.918
1010.72	306.914
1013.62	468.156
1016.51	373.781
1019.4	266.332
1022.29	210.113
1025.19	3.20703
1028.08	94.5898
1030.97	269.484
1033.86	308.715
1036.76	409.231
1039.65	345.527
1042.54	483.144
1045.43	507.644
1048.33	418.688
1051.22	50
1054.11	90.5391
1057.01	40.7969
1059.9	240.945
1062.79	113.555
1065.68	226.238
1068.58	18.8086
1071.47	267.641
1074.36	86.3906
1077.26	333.633
1080.15	261.613
1083.04	411.867
1085.93	355.019
1088.83	279.414
1091.72	92.0742
1094.61	193.664
1097.5	194.809
1100.4	56.7109
1103.29	151.324
1106.18	5.61719
1109.07	124.762
1111.97	57.9414
1114.86	156.133
1117.75	4.03906
1120.64	171.016
1123.54	234.367
1126.43	208
1129.32	25.9648
1132.22	85.0898
1135.11	196.457
1138	279.598
1140.89	190.574
1143.79	121.707
1146.68	183.848
1149.57	279.336
1152.46	275.195
1155.36	199.984
1158.25	190.121
1161.14	208.445
1164.04	229.84
1166.93	134.848
1169.82	181.465
1172.71	176.918
1175.61	146.676
1178.5	57.1367
1181.39	18.8008
1184.29	49.2266
1187.18	168.805
1190.07	111.883
1192.96	142.773
1195.86	165.961
1198.75	165.566
1201.64	232.012
1204.53	264.25
1207.43	55.6211
1210.32	137.082
1213.21	174.613
1216.1	27.8125
1219	252.965
1221.89	37.3945
1224.78	19.8789
1227.67	140.883
1230.57	226.043
1233.46	195.598
1236.35	139.621
1239.25	144.266
1242.14	311.738
1245.03	178.832
1247.92	142.715
1250.82	68.9062
1253.71	73.6484
1256.6	48.1328
1259.49	356.789
1262.39	170.789
1265.28	210.43
1268.17	248.543
1271.07	333.109
1273.96	256.269
1276.85	99.2188
1279.74	111.121
1282.64	382.023
1285.53	242.262
1288.42	261.047
1291.32	215.75
1294.21	4.28906
1297.1	229.672
1299.99	0
