Measurement: Raman, 532 nm, unoriented, Raman Data Processed
Mineral: Wolsendorfite
Rruff sample: R090051
Ideal chemistry: Pb^2+^_7_(U^6+^O_2_)_14_O_19_(OH)_4_12H_2_O
Locality: Shinkolobwe mine, Katanga, Congo
Source: William W. Pinch
Description: A crust of orange blocky crystals.  Sample is from the specimen used in the Burns (1999) study. Associated with rutherfordine.
Raman shift (cm-1)	intensity
89.7816	0
93.1564	73.371
96.5312	459.002
99.906	548.983
103.281	1278.43
106.656	328.997
110.031	32.3187
113.405	1081.55
116.78	217.861
120.155	1260.26
123.53	1123.69
126.905	353.313
130.279	663.534
133.654	982.538
137.029	756.013
140.404	1397.53
143.779	623.285
147.154	737.806
150.528	747.813
153.903	1276.9
157.278	879.027
160.653	1071.44
164.028	746.369
167.402	550.422
170.777	697.562
174.152	507.415
177.527	1.31543
180.902	761.72
184.277	697.388
187.651	753.254
191.026	841.848
194.401	400.18
197.776	1091.15
201.151	984.486
204.525	690.247
207.9	1454.32
211.275	1368.59
214.65	1017.72
218.025	873.914
221.4	945.254
224.774	572.548
228.149	967.71
231.524	354.823
234.899	882.532
238.274	961.528
241.649	964.389
245.023	1079.46
248.398	1017.36
251.773	827.669
255.148	1242.12
258.523	1160.78
261.897	1152
265.272	1193.73
268.647	603.633
272.022	831.811
275.397	634.24
278.772	854.415
282.146	193.785
285.521	368.115
288.896	157.935
292.271	122.559
295.646	317.768
299.02	346.57
302.395	339.026
305.77	400.43
309.145	558.604
312.52	745.599
315.895	844.56
319.269	864.72
322.644	909.86
326.019	647.059
329.394	1141.35
332.769	1341.38
336.144	845.543
339.518	1714.08
342.893	1699.94
346.268	1631.26
349.643	1340.12
353.018	1371.6
356.392	789.219
359.767	1091.83
363.142	674.312
366.517	159.336
369.892	155.851
373.267	340.152
376.641	303.409
380.016	334.865
383.391	258.894
386.766	388.955
390.141	534.514
393.515	173.988
396.89	475.088
400.265	159.597
403.64	254.133
407.015	36.4795
410.39	527.55
413.764	171.476
417.139	164.283
420.514	509.116
423.889	123.89
427.264	341.611
430.639	407.298
434.013	232.572
437.388	507.461
440.763	173.626
444.138	253.371
447.513	190.847
450.887	182.994
454.262	49.2192
457.637	277.471
461.012	185.179
464.387	512.381
467.762	539.668
471.136	691.768
474.511	967.33
477.886	828.522
481.261	846.15
484.636	846.297
488.01	476.313
491.385	767.807
494.76	775.827
498.135	575.249
501.51	1019.71
504.885	1322.49
508.259	1618.73
511.634	1405.39
515.009	1692.67
518.384	1181.87
521.759	660.306
525.134	895.219
528.508	546.02
531.883	675.244
535.258	587.517
538.633	412.724
542.008	28.4309
545.382	207.072
548.757	317.765
552.132	311.326
555.507	216.623
558.882	241.795
562.256	34.207
565.631	174.398
569.006	355.049
572.381	115.903
575.756	379.004
579.131	273.714
582.505	417.63
585.88	89.7991
589.255	317.606
592.63	369.421
596.005	381.631
599.38	297.96
602.754	350.527
606.129	449.133
609.504	355.204
612.879	204.652
616.254	305.411
619.629	318.623
623.003	80.7483
626.378	461.232
629.753	287.995
633.128	411.711
636.503	244.955
639.877	128.354
643.252	201.054
646.627	42.0808
650.002	158.296
653.377	108.744
656.751	170.97
660.126	32.7957
663.501	5.80762
666.876	236.569
670.251	48.6721
673.626	249.81
677	85.488
680.375	124.645
683.75	153.349
687.125	115.175
690.5	229.806
693.875	50.6304
697.249	131.453
700.624	495.486
703.999	163.401
707.374	448.161
710.749	638.757
714.124	617.94
717.498	990.148
720.873	1113.7
724.248	1213.61
727.623	2035.47
730.998	2530.58
734.372	3663.81
737.747	4905.43
741.122	6117.51
744.497	7681.31
747.872	8973.63
751.246	10099.2
754.621	10235.3
757.996	9650.49
761.371	8985.31
764.746	8080.73
768.121	7441.07
771.495	6156.63
774.87	5720.2
778.245	4899.53
781.62	4082.06
784.995	3086.27
788.37	2433.91
791.744	2040.46
795.119	1776.13
798.494	1084.7
801.869	982.749
805.244	733.087
808.619	451.319
811.993	313.315
815.368	28.4973
818.743	268.74
822.118	114.605
825.493	477.706
828.867	109.698
832.242	84.8057
835.617	135.272
838.992	273.635
842.367	288.906
845.741	156.52
849.116	445.005
852.491	97.6074
855.866	314.556
859.241	80.3381
862.616	314.637
865.99	439.129
869.365	104.615
872.74	227.797
876.115	466.76
879.49	12.5278
882.865	169.207
886.239	232.043
889.614	67.4026
892.989	554.809
896.364	39.064
899.739	489.836
903.113	403.486
906.488	444.12
909.863	460.908
913.238	283.144
916.613	17.5886
919.987	457.385
923.362	232.332
926.737	357.098
930.112	489.923
933.487	467.172
936.862	356.577
940.236	230.509
943.611	365.737
946.986	180.626
950.361	433.637
953.736	261.174
957.111	450.784
960.485	563.484
963.86	80.4836
967.235	141.005
970.61	26.9502
973.985	161.056
977.36	657.589
980.734	411.128
984.109	219.057
987.484	421.639
990.859	96.2681
994.234	9.33813
997.608	100.83
1000.98	251.324
1004.36	119.891
1007.73	450.206
1011.11	154.599
1014.48	154.908
1017.86	32.5173
1021.23	441.398
1024.61	31.5286
1027.98	490.701
1031.36	134.882
1034.73	97.2319
1038.11	208.413
1041.48	528.893
1044.86	495.227
1048.23	11.0715
1051.61	303.11
1054.98	171.73
1058.36	192.107
1061.73	162.905
1065.11	428.571
1068.48	523.577
1071.85	47.7705
1075.23	310.195
1078.6	268.595
1081.98	458.204
1085.35	94.6619
1088.73	82.9937
1092.1	360.215
1095.48	98.8677
1098.85	146.906
1102.23	429.408
1105.6	184.001
1108.98	363.988
1112.35	581.569
1115.73	331.632
1119.1	411.076
1122.48	361.576
1125.85	174.605
1129.23	239.445
1132.6	345.924
1135.98	448.003
1139.35	459.783
1142.73	487.11
1146.1	460.372
1149.47	254.68
1152.85	236.102
1156.22	268.742
1159.6	42.3052
1162.97	381.685
1166.35	57.8848
1169.72	400.497
1173.1	13.0845
1176.47	313.17
1179.85	457.595
1183.22	443.834
1186.6	630.799
1189.97	382.008
1193.35	329.405
1196.72	181.942
1200.1	465.709
1203.47	549.594
1206.85	202.171
1210.22	240.143
1213.6	428.375
1216.97	320.221
1220.35	517.218
1223.72	370.059
1227.1	390.311
1230.47	686.85
1233.85	206.858
1237.22	304.525
1240.6	232.692
1243.97	165.444
1247.35	423.777
1250.72	493.411
1254.1	820.236
1257.47	231.309
1260.84	489.064
1264.22	399.454
1267.59	236.002
1270.97	212.194
1274.34	498.594
1277.72	506.179
1281.09	542.22
1284.47	560.072
1287.84	593.494
1291.22	331.538
1294.59	511.634
1297.97	109.276
1301.34	31.292
