Measurement: Raman, 532 nm, unoriented, Raman Data Processed
Mineral: Woodwardite
Rruff sample: R060762
Ideal chemistry: (Cu^2+^,Al)_9_(S^6+^O_4_)_2_(OH)_18_nH_2_O
Locality: Cornwall, England
Source: Michael Scott
Description: Pale blue granular coating on bull quartz
Raman shift (cm-1)	intensity
163.467	0
166.36	23.6634
169.252	126.677
172.145	213.782
175.038	276.354
177.93	310.359
180.823	190.05
183.716	180.195
186.608	56.5635
189.501	23.1944
192.394	65.3365
195.286	41.0444
198.179	35.976
201.072	8.1866
203.965	45.438
206.857	47.8269
209.75	13.2963
212.643	7.76163
215.535	8.38623
218.428	21.7347
221.321	17.2546
224.214	87.9189
227.106	87.2245
229.999	185.572
232.892	236.907
235.784	247.338
238.677	287.3
241.57	269.455
244.462	338.952
247.355	371.873
250.248	369.055
253.141	389.234
256.033	398.085
258.926	352.762
261.819	356.205
264.711	326.698
267.604	254.565
270.497	233.659
273.389	126.083
276.282	144.449
279.175	108.143
282.067	54.346
284.96	95.8728
287.853	57.9476
290.746	32.4984
293.638	4.44936
296.531	33.6421
299.424	0.221128
302.316	6.36122
305.209	1.94782
308.102	53.0996
310.994	16.4661
313.887	70.2896
316.78	97.7962
319.673	41.1587
322.565	93.2427
325.458	111.628
328.351	149.764
331.243	183.836
334.136	164.886
337.029	212.203
339.921	143.659
342.814	147.227
345.707	61.2993
348.599	72.1513
351.492	51.4793
354.385	32.624
357.278	33.9562
360.17	12.5907
363.063	18.2305
365.956	13.9354
368.848	42.4556
371.741	0.772149
374.634	5.22279
377.526	5.79985
380.419	3.1854
383.312	5.91365
386.205	9.73266
389.097	6.50594
391.99	0.486519
394.883	7.37962
397.775	58.354
400.668	94.8136
403.561	110.613
406.454	137.132
409.346	271.283
412.239	298.291
415.132	328.955
418.024	386.109
420.917	406.034
423.81	434.211
426.702	464.822
429.595	532.169
432.488	735.768
435.38	904.478
438.273	1044.71
441.166	1276.9
444.059	1361.33
446.951	1243.12
449.844	1061
452.737	934.859
455.629	694.202
458.522	480.513
461.415	367.213
464.308	275.904
467.2	185.791
470.093	132.56
472.986	129.951
475.878	95.7708
478.771	71.7138
481.664	122.117
484.556	116.285
487.449	135.216
490.342	211.109
493.234	294.407
496.127	353.74
499.02	425.698
501.913	471.049
504.805	467.215
507.698	464.501
510.591	404.791
513.483	320.989
516.376	278.239
519.269	162.514
522.161	178.505
525.054	74.9773
527.947	87.9846
530.84	60.5185
533.732	17.8782
536.625	19.1943
539.518	9.10088
542.41	2.55337
545.303	20.6479
548.196	4.81445
551.088	8.082
553.981	11.3989
556.874	1.69424
559.766	20.5116
562.659	0.371792
565.552	16.3342
568.445	39.2531
571.337	23.7624
574.23	48.0335
577.123	30.1236
580.015	18.2593
582.908	42.9621
585.801	69.2669
588.693	91.9356
591.586	169.169
594.479	171.555
597.372	184.013
600.264	209.233
603.157	222.626
606.05	225.569
608.942	243.839
611.835	228.52
614.728	253.386
617.62	202.551
620.513	170.811
623.406	137.978
626.298	124.762
629.191	101.602
632.084	44.6399
634.977	26.252
637.869	14.3525
640.762	10.5551
643.655	26.7356
646.547	25.9648
649.44	5.43558
652.333	25.3421
655.226	50.5574
658.118	1.4274
661.011	31.768
663.904	21.37
666.796	1.20971
669.689	5.66026
672.582	63.6239
675.474	55.3404
678.367	65.766
681.26	58.2102
684.153	38.26
687.045	22.0533
689.938	62.6601
692.831	72.2737
695.723	51.0626
698.616	8.94483
701.509	7.11029
704.401	49.6429
707.294	39.5988
710.187	43.5582
713.08	41.7144
715.972	57.263
718.865	62.0586
721.758	8.50507
724.65	43.9537
727.543	70.1151
730.436	61.2402
733.328	10.712
736.221	13.2308
739.114	83.2095
742.006	33.5644
744.899	32.914
747.792	21.3168
750.685	73.5475
753.577	61.8191
756.47	68.6449
759.363	60.3955
762.255	32.8927
765.148	49.0657
768.041	83.9376
770.933	19.5713
773.826	7.19562
776.719	9.38015
779.612	5.49941
782.504	49.4804
785.397	18.1765
788.29	24.8984
791.182	0.094418
794.075	46.3011
796.968	52.9557
799.86	29.2932
802.753	5.89248
805.646	5.1145
808.538	63.4304
811.431	23.1669
814.324	30.6495
817.217	59.0483
820.109	70.4048
823.002	50.1487
825.895	48.5674
828.787	51.842
831.68	21.1246
834.573	44.596
837.466	41.459
840.358	19.8752
843.251	57.6484
846.144	31.9359
849.036	9.721
851.929	21.3432
854.822	2.70488
857.714	0.727923
860.607	19.8568
863.5	5.29789
866.393	8.56373
869.285	4.26056
872.178	11.2762
875.071	2.19735
877.963	16.4585
880.856	2.40993
883.749	70.3241
886.641	34.7122
889.534	34.6369
892.427	39.6057
895.319	108.317
898.212	40.8504
901.105	61.1629
903.998	97.2764
906.89	85.0272
909.783	39.1321
912.676	83.7445
915.568	50.9922
918.461	12.6957
921.354	63.7163
924.246	71.8787
927.139	70.9892
930.032	7.98674
932.925	45.4376
935.817	11.7919
938.71	36.9481
941.603	8.81258
944.495	60.472
947.388	74.5475
950.281	90.4452
953.173	101.009
956.066	175.778
958.959	315.995
961.851	473.763
964.744	828.328
967.637	1203.17
970.53	1754.07
973.422	2060.93
976.315	1688.31
979.208	1232.5
982.1	823.781
984.993	629.27
987.886	435.807
990.779	320.074
993.671	292.668
996.564	195.414
999.457	130.221
1002.35	110.643
1005.24	51.0979
1008.13	37.9761
1011.03	10.5834
1013.92	6.34012
1016.81	5.23861
1019.71	9.04134
1022.6	12.6035
1025.49	12.6894
1028.38	24.7656
1031.28	3.77604
1034.17	28.8414
1037.06	9.96417
1039.95	21.2888
1042.85	26.0208
1045.74	5.10315
1048.63	57.3708
1051.53	76.0622
1054.42	19.3677
1057.31	86.9746
1060.2	57.4042
1063.1	49.6808
1065.99	105.539
1068.88	99.0945
1071.77	85.2605
1074.67	75.1852
1077.56	73.8892
1080.45	16.815
1083.35	4.75181
1086.24	2.7554
1089.13	57.099
1092.02	30.5956
1094.92	55.2059
1097.81	57.2029
1100.7	61.4066
1103.59	52.004
1106.49	46.0882
1109.38	28.7746
1112.27	60.4876
1115.16	48.9742
1118.06	76.2328
1120.95	72.4116
1123.84	42.361
1126.73	87.1493
1129.63	84.7313
1132.52	97.8844
1135.41	60.4367
1138.31	75.5873
1141.2	69.329
1144.09	58.9885
1146.98	65.7684
1149.88	88.7587
1152.77	130.482
1155.66	102.482
1158.56	80.0508
1161.45	64.058
1164.34	12.7421
1167.23	2.98055
1170.13	7.10592
1173.02	49.1916
1175.91	1.46939
1178.8	43.1243
1181.7	17.9714
1184.59	4.5216
1187.48	20.7172
1190.38	44.4704
1193.27	8.6987
1196.16	22.9845
1199.05	10.6211
1201.94	10.5044
1204.84	14.6863
1207.73	30.2053
1210.62	32.5545
1213.52	28.1697
1216.41	51.0243
1219.3	44.1148
1222.19	51.3076
1225.09	57.9294
1227.98	19.3727
1230.87	70.2486
1233.77	62.2504
1236.66	9.90803
1239.55	108.063
1242.44	16.1905
1245.34	53.346
1248.23	61.4501
1251.12	39.5999
1254.01	0.298897
1256.91	73.9164
1259.8	1.27724
1262.69	16.5355
1265.59	3.59996
1268.48	32.3808
1271.37	28.3903
1274.26	34.1146
1277.16	42.0733
1280.05	38.5493
1282.94	42.9432
1285.83	86.0808
1288.73	29.2984
1291.62	59.1042
1294.51	57.4692
1297.4	51.2252
1300.3	22.5348
