Measurement: Raman, 532 nm, unoriented, Raman Data Processed
Mineral: Wooldridgeite
Rruff sample: R100005
Ideal chemistry: Na_2_CaCu^2+^_2_(P_2_O_7_)_2_10H_2_O
Locality: Judkins Quarry, Nuneaton, Warwickshire, England
Source: William Pinch
Description: Pale green equant rhombic-dipyramidal crystals, co-type sample
Raman shift (cm-1)	intensity
206.276	0
209.168	2.30438
212.061	6.42377
214.954	3.54627
217.846	13.7398
220.739	14.2359
223.632	13.0657
226.525	13.375
229.417	12.0469
232.31	7.60376
235.203	5.63068
238.095	5.3183
240.988	5.0481
243.881	1.69013
246.774	3.86182
249.666	5.73486
252.559	7.83148
255.452	5.12738
258.344	2.12622
261.237	1.35425
264.13	3.38257
267.022	2.96857
269.915	6.0462
272.808	0.994141
275.701	2.95483
278.593	0.987244
281.486	4.53577
284.379	1.01959
287.271	0.009827
290.164	0.335754
293.057	3.38757
295.95	4.24676
298.842	13.6935
301.735	14.8177
304.628	18.0723
307.52	20.1201
310.413	20.0039
313.306	14.1953
316.198	17.9707
319.091	16.955
321.984	15.3074
324.877	14.0591
327.769	10.1267
330.662	4.27319
333.555	4.1272
336.447	5.40967
339.34	0.810791
342.233	3.52844
345.125	2.68921
348.018	7.8103
350.911	9.54395
353.803	9.18939
356.696	10.5073
359.589	18.3412
362.481	22.7424
365.374	26.4876
368.267	36.6408
371.16	52.0555
374.052	65.0562
376.945	78.0525
379.838	102.715
382.73	115.387
385.623	116.868
388.516	101.243
391.409	75.7781
394.301	48.2653
397.194	34.0689
400.087	22.0379
402.979	15.0388
405.872	11.5469
408.765	8.26355
411.657	6.6731
414.55	2.07379
417.443	3.30206
420.336	3.68921
423.228	0.628357
426.121	1.0838
429.014	0.302307
431.906	1.16315
434.799	1.2514
437.692	2.15662
440.584	3.93463
443.477	0.545532
446.37	2.52734
449.262	7.70221
452.155	12.8821
455.048	14.2202
457.941	14.6017
460.833	26.3291
463.726	25.6405
466.619	24.8392
469.511	20.4911
472.404	15.6315
475.297	16.6867
478.19	8.08893
481.082	6.76666
483.975	7.8172
486.868	1.16138
489.76	6.87964
492.653	6.24133
495.546	0.131592
498.438	3.26715
501.331	6.74255
504.224	6.52002
507.116	6.14832
510.009	10.5358
512.902	8.88946
515.795	6.86511
518.687	6.26935
521.58	1.97467
524.473	0.627502
527.365	2.48694
530.258	2.30054
533.151	2.16065
536.044	3.19202
538.936	2.87244
541.829	0.60437
544.722	2.60712
547.614	0.414612
550.507	3.78076
553.4	0.927368
556.293	2.5257
559.185	1.20636
562.078	5.44727
564.971	1.8175
567.863	6.44843
570.756	4.01282
573.649	4.97687
576.541	7.9129
579.434	4.86529
582.327	3.83264
585.219	3.24091
588.112	4.02386
591.005	5.39984
593.898	5.25617
596.79	4.49451
599.683	3.88934
602.576	1.35516
605.468	0.232422
608.361	3.21893
611.254	2.12988
614.146	0.577332
617.039	1.1994
619.932	1.55402
622.824	4.34174
625.717	6.33032
628.61	4.72864
631.503	10.9856
634.395	10.3859
637.288	14.3907
640.181	18.821
643.073	34.9367
645.966	40.6401
648.859	56.0714
651.751	62.2971
654.644	55.933
657.537	44.5632
660.43	34.2648
663.322	20.7322
666.215	16.494
669.108	14.5707
672	10.0201
674.893	10.103
677.786	4.40814
680.678	7.13861
683.571	2.87695
686.464	1.21826
689.357	5.99255
692.249	5.07019
695.142	1.95142
698.035	2.16968
700.927	1.51038
703.82	0.711243
706.713	1.73938
709.606	5.5083
712.498	4.60706
715.391	2.5304
718.284	4.70233
721.176	1.40643
724.069	1.67853
726.962	3.44794
729.854	1.78503
732.747	6.3476
735.64	4.64465
738.533	9.75952
741.425	11.9339
744.318	14.684
747.211	17.1831
750.103	25.2957
752.996	29.9122
755.889	34.7894
758.781	38.9799
761.674	47.7156
764.567	43.9824
767.46	45.3992
770.352	33.8367
773.245	31.016
776.138	24.4694
779.03	15.8661
781.923	11.6547
784.816	11.4542
787.708	8.61352
790.601	5.62286
793.494	3.64771
796.386	5.32361
799.279	1.79602
802.172	1.46375
805.065	1.84082
807.957	1.94568
810.85	2.80676
813.743	2.83972
816.635	0.189636
819.528	0.093689
822.421	1.87866
825.313	2.81799
828.206	2.23761
831.099	2.89923
833.992	2.0003
836.884	0.634888
839.777	2.85144
842.67	3.76385
845.562	8.39258
848.455	1.87207
851.348	4.57697
854.24	4.39056
857.133	8.50525
860.026	11.6716
862.919	19.5982
865.811	25.6898
868.704	26.4491
871.597	32.24
874.489	38.5604
877.382	38.6804
880.275	33.5481
883.168	33.2307
886.06	21.8206
888.953	20.2505
891.846	14.3825
894.738	6.56012
897.631	5.18365
900.524	5.8598
903.416	5.86322
906.309	8.04907
909.202	3.98236
912.095	2.82397
914.987	2.78046
917.88	3.63684
920.773	3.23749
923.665	4.50537
926.558	3.86981
929.451	0.869141
932.343	0.905579
935.236	2.97662
938.129	4.97839
941.021	0.181824
943.914	2.30176
946.807	0.703186
949.7	1.96936
952.592	3.00177
955.485	0.879517
958.378	1.65112
961.27	3.78174
964.163	1.20996
967.056	0.016602
969.948	0.703796
972.841	1.04761
975.734	0.430664
978.627	3.82971
981.519	5.01007
984.412	6.6676
987.305	6.82568
990.197	6.59131
993.09	10.3727
995.983	2.78857
998.875	5.64612
1001.77	3.12128
1004.66	4.93121
1007.55	4.79236
1010.45	4.64014
1013.34	1.62897
1016.23	4.28174
1019.12	6.29175
1022.02	7.91894
1024.91	10.9654
1027.8	13.8902
1030.69	18.0173
1033.59	24.1114
1036.48	37.2673
1039.37	49.7733
1042.27	74.5574
1045.16	105.892
1048.05	141.051
1050.94	167.306
1053.84	180.998
1056.73	154.357
1059.62	109.738
1062.52	81.6517
1065.41	70.3434
1068.3	52.574
1071.19	42.048
1074.09	29.2898
1076.98	23.1469
1079.87	18.3478
1082.76	16.3552
1085.66	16.1446
1088.55	13.5211
1091.44	6.1521
1094.34	7.01514
1097.23	5.12164
1100.12	12.3749
1103.01	6.08649
1105.9	6.87604
1108.8	3.55731
1111.69	3.12671
1114.58	0.592407
1117.48	3.30115
1120.37	0.707947
1123.26	1.9079
1126.15	1.03632
1129.05	2.23804
1131.94	12.0925
1134.83	12.5468
1137.72	16.2421
1140.62	18.7073
1143.51	15.5956
1146.4	11.5085
1149.3	9.86652
1152.19	10.1355
1155.08	10.6846
1157.97	8.08276
1160.87	9.87628
1163.76	8.88989
1166.65	6.48938
1169.55	5.40308
1172.44	6.21698
1175.33	4.21551
1178.22	6.34796
1181.12	2.98541
1184.01	4.34992
1186.9	7.8346
1189.79	7.81921
1192.69	9.84546
1195.58	16.6818
1198.47	22.3344
1201.37	29.5167
1204.26	36.0341
1207.15	41.2309
1210.04	53.1223
1212.93	52.1963
1215.83	46.3027
1218.72	33.6713
1221.61	23.3961
1224.51	15.5335
1227.4	13.3074
1230.29	5.82349
1233.18	2.73498
1236.08	1.90009
1238.97	2.48718
1241.86	1.7821
1244.76	3.04974
1247.65	1.37299
1250.54	2.08081
1253.43	1.01428
1256.33	2.94141
1259.22	2.37708
1262.11	3.75024
1265	5.08612
1267.9	4.09912
1270.79	1.49359
1273.68	3.83215
1276.58	5.08978
1279.47	4.76739
1282.36	3.26019
1285.25	0.931641
1288.15	2.99493
1291.04	8.70392
1293.93	1.18811
1296.82	0.994324
1299.72	0.695068
