Measurement: Raman, 780 nm, unoriented, Raman Data Processed
Mineral: Wurtzite
Rruff sample: R060181
Ideal chemistry: Zn^2+^S^2+^
Locality: Silver Islet mine, Thunder Bay, Ontario, Canada
Source: Lloyd Twaites
Description: Dark-brown hexagonal prisms, polytype 2H
Measured chemistry: (Zn_0.88_Fe_0.12_)S_1.00_
Raman shift (cm-1)	intensity
151.808	0
154.701	0.083198
157.593	0.549984
160.486	0.443449
163.379	1.39384
166.271	1.95749
169.164	3.11517
172.057	4.32496
174.949	5.15494
177.842	4.31749
180.735	3.42656
183.627	2.49147
186.52	1.40189
189.413	1.01802
192.306	1.23371
195.198	0.749106
198.091	1.83947
200.984	3.0017
203.876	3.23974
206.769	6.55709
209.662	8.44824
212.554	9.96739
215.447	10.6501
218.34	10.4078
221.233	8.8365
224.125	6.95276
227.018	4.38387
229.911	3.51852
232.803	2.72944
235.696	1.96775
238.589	1.44885
241.482	0.789101
244.374	0.580662
247.267	0.475924
250.16	0.39403
253.052	0.252947
255.945	0.140622
258.838	0.642231
261.73	0.189233
264.623	0.064075
267.516	0.261121
270.408	0.524974
273.301	1.06861
276.194	2.57439
279.087	5.88069
281.979	10.0195
284.872	14.2114
287.765	20.6709
290.657	26.2278
293.55	32.1803
296.443	34.4936
299.335	33.769
302.228	29.4554
305.121	24.5253
308.014	21.8781
310.906	19.818
313.799	16.4151
316.692	13.6586
319.584	15.8384
322.477	17.9857
325.37	21.6074
328.262	23.523
331.155	22.9755
334.048	22.898
336.94	19.7763
339.833	19.9602
342.726	23.3108
345.619	28.7541
348.511	34.5667
351.404	21.3153
354.297	6.66063
357.189	2.09972
360.082	0.573471
362.975	0.295278
365.868	0.834572
368.76	0.408066
371.653	0.092286
374.546	0.166985
377.438	0.52897
380.331	0.171886
383.224	0.294612
386.116	0.803688
389.009	1.61719
391.902	1.53789
394.795	2.15765
397.687	1.78196
400.58	1.30126
403.473	1.22197
406.365	1.03682
409.258	1.73578
412.151	2.61058
415.043	3.02323
417.936	2.57106
420.829	4.053
423.721	3.83764
426.614	3.02666
429.507	2.23886
432.399	1.14556
435.292	2.59729
438.185	1.39782
441.078	1.23396
443.97	1.95611
446.863	2.58002
449.756	0.37689
452.648	0.070688
455.541	0.191013
458.434	0.841477
461.327	0.539301
464.219	0.110471
467.112	1.06874
470.005	0.088224
472.897	0.135684
475.79	0.52064
478.683	0.05236
481.575	1.58072
484.468	1.13132
487.361	2.74514
490.253	1.52462
493.146	1.79078
496.039	2.53207
498.932	2.49414
501.824	2.32754
504.717	2.26854
507.61	3.69184
510.502	2.71957
513.395	3.0994
516.288	2.7297
519.181	2.26532
522.073	2.24123
524.966	1.58919
527.859	2.01056
530.751	1.87684
533.644	0.514385
536.537	0.656087
539.429	0.677168
542.322	0.133866
545.215	0.04874
548.107	1.35136
551	0.102615
553.893	0.82351
556.785	0.146778
559.678	0.688127
562.571	0.231961
565.464	0.231517
568.356	0.065163
571.249	0.275064
574.142	0.883278
577.034	0.258958
579.927	0.35815
582.82	0.780756
585.712	0.716831
588.605	1.0046
591.498	1.04893
594.391	1.45789
597.283	1.52605
600.176	1.9316
603.069	2.24027
605.961	2.65226
608.854	2.27985
611.747	2.54935
614.639	2.41528
617.532	2.44276
620.425	1.99043
623.318	1.30414
626.21	1.99222
629.103	1.06556
631.996	1.39401
634.888	1.47382
637.781	1.40272
640.674	0.579984
643.567	0.254957
646.459	0.546197
649.352	0.747857
652.245	1.69347
655.137	3.04013
658.03	3.68714
660.923	5.46589
663.815	6.1696
666.708	6.59288
669.601	6.14672
672.494	5.40864
675.386	4.37216
678.279	3.19286
681.172	2.39404
684.064	2.35437
686.957	1.88481
689.85	0.401336
692.742	0.308433
695.635	0.288374
698.528	0.064228
701.42	0.167468
704.313	0.278529
707.206	0.150877
710.098	0.6294
712.991	0.252814
715.884	0.107785
718.777	0.150238
721.669	0.300638
724.562	0.521481
727.455	0.238387
730.347	0.343632
733.24	0.028311
736.133	0.718795
739.025	0.56994
741.918	0.285647
744.811	0.582631
747.704	1.02488
750.596	0.25577
753.489	0.034272
756.382	0.456363
759.274	0.60147
762.167	0.329886
765.06	0.043968
767.952	1.83503
770.845	0.735397
773.738	1.31013
776.631	0.068163
779.523	1.57362
782.416	1.14209
785.309	0.891924
788.201	0.140822
791.094	0.568519
793.987	0.018891
796.88	1.08695
799.772	0.185041
802.665	1.00412
805.558	0.288026
808.45	0.931212
811.343	0.161161
814.236	1.24221
817.128	1.35391
820.021	1.3405
822.914	1.48391
825.807	0.536282
828.699	1.21991
831.592	1.37894
834.485	1.13035
837.377	1.53829
840.27	1.47802
843.163	1.3849
846.055	1.20944
848.948	0.744497
851.841	1.85496
854.734	1.44724
857.626	1.2844
860.519	1.4644
863.412	1.42089
866.304	0.960052
869.197	1.27543
872.09	1.608
874.982	1.54606
877.875	1.41401
880.768	0.14613
883.66	0.810019
886.553	0.533459
889.446	0.043631
892.338	0.159636
895.231	0.26894
898.124	1.04579
901.017	0.441886
903.909	0.478167
906.802	1.54797
909.695	1.15837
912.587	0.308509
915.48	0.044848
918.373	0.067421
921.265	0.378999
924.158	0.364862
927.051	0.801718
929.944	0.060066
932.836	0.149648
935.729	0.75931
938.622	0.575874
941.514	0.673642
944.407	0.595802
947.3	0.970315
950.192	1.5703
953.085	1.40804
955.978	0.04794
958.87	0.203983
961.763	0.729027
964.656	1.24742
967.549	0.804517
970.441	0.40043
973.334	0.927723
976.227	0.655311
979.119	0.092517
982.012	0.33208
984.905	1.00408
987.798	0.098097
990.69	1.1912
993.583	0.967463
996.476	1.1197
999.368	0.291518
1002.26	1.25406
1005.15	0.963512
1008.05	0.750764
1010.94	0.062755
1013.83	0.093972
1016.73	1.15277
1019.62	1.11793
1022.51	0.908514
1025.4	0.396006
1028.3	1.3138
1031.19	1.12867
1034.08	1.16915
1036.97	1.57603
1039.87	1.64242
1042.76	1.23019
1045.65	0.994889
1048.54	1.02088
1051.44	0.958376
1054.33	1.15012
1057.22	0.570077
1060.12	1.40811
1063.01	0.711272
1065.9	1.46296
1068.79	1.04169
1071.69	1.38202
1074.58	1.29304
1077.47	0.437183
1080.36	0.155488
1083.26	1.18113
1086.15	1.09964
1089.04	0.234711
1091.93	0.39114
1094.83	1.43874
1097.72	0.53601
1100.61	1.02558
1103.51	0.6382
1106.4	0.371125
1109.29	0.734569
1112.18	0.343892
1115.08	0.239726
1117.97	0.110358
1120.86	0.807928
1123.75	0.739807
1126.65	1.80208
1129.54	0.698213
1132.43	1.10219
1135.33	0.589017
1138.22	1.23619
1141.11	0.866796
1144	0.986639
1146.9	0.383614
1149.79	0.355443
1152.68	0.739857
1155.57	0.645834
1158.47	0.206893
1161.36	0.977974
1164.25	0.926362
1167.14	1.30783
1170.04	0.832822
1172.93	0.567843
1175.82	0.207073
1178.72	1.00153
1181.61	0.864465
1184.5	1.15054
1187.39	0.213719
1190.29	1.26708
1193.18	0.127199
1196.07	0.25674
1198.96	0.2407
1201.86	0.290062
1204.75	0.798155
1207.64	0.997025
1210.54	1.49697
1213.43	2.06542
1216.32	0.772058
1219.21	0.055995
1222.11	0.802345
1225	0.517009
1227.89	1.5472
1230.78	1.36198
1233.68	0.985429
1236.57	0.931685
1239.46	1.14215
1242.36	1.23969
1245.25	0.921193
1248.14	1.15452
1251.03	0.841043
1253.93	0.011776
1256.82	1.26483
1259.71	0.649785
1262.6	0.680049
1265.5	0.177724
1268.39	0.310291
1271.28	0.364498
1274.17	0.459813
1277.07	1.05191
1279.96	0.779397
1282.85	0.100853
1285.74	0.029489
