Measurement: Raman, 514 nm, unoriented, Raman Data Processed
Mineral: Xanthoxenite
Rruff sample: R050234
Ideal chemistry: Ca_4_Fe^3+^_2_(PO_4_)_4_(OH)_2_3H_2_O
Locality: Palermo mine, North Groton, Grafton County, New Hampshire, USA
Source: Marcus Origlieri
Description: Pale-yellow massive
Raman shift (cm-1)	intensity
153.096	0
157.247	0.641
161.396	84.803
165.544	103.51
169.689	247.385
173.833	416.182
177.974	423.916
182.114	711.918
186.251	1082.97
190.387	1445.93
194.52	2203.69
198.652	2652.62
202.782	3384.09
206.909	4436.94
211.035	4323.36
215.159	4030.26
219.281	4321.69
223.4	4537.18
227.518	4662.19
231.634	5080.06
235.748	5251.04
239.86	5211.83
243.97	5348.81
248.079	5152.96
252.185	5432.77
256.289	5395.71
260.391	5886.71
264.492	5978.28
268.59	6205.14
272.687	6468.54
276.781	6640.55
280.874	6391.52
284.964	5518.41
289.053	4942.81
293.14	4329.04
297.225	3722.96
301.308	2926.55
305.389	2551.81
309.468	2184.74
313.545	1569.31
317.62	1233.11
321.693	1151.72
325.765	690.963
329.834	559.71
333.902	416.535
337.967	483.039
342.031	348.961
346.093	183.112
350.153	14.269
354.21	64.037
358.267	200.269
362.321	18.472
366.373	123.531
370.423	64.809
374.471	179.897
378.518	44.762
382.563	47.341
386.605	185.923
390.646	375.639
394.685	514.039
398.722	844.874
402.757	1069.43
406.79	1315.71
410.821	1374.66
414.851	1565.31
418.878	1373.39
422.904	1540.79
426.927	1774.48
430.949	1653.03
434.969	2065.91
438.987	2395.56
443.003	2249.93
447.018	2583.98
451.03	2866.73
455.041	2208.18
459.049	2284.27
463.056	2289.04
467.061	2314.34
471.064	2075.17
475.065	1700.54
479.064	2075.57
483.062	1622.12
487.057	1238.18
491.051	1121.72
495.043	1004.66
499.032	1180.2
503.02	928.955
507.007	644.506
510.991	532.817
514.973	514.893
518.954	370.307
522.933	215.365
526.91	16.792
530.885	320.107
534.858	284.576
538.829	452.106
542.799	626.364
546.766	540.997
550.732	696.629
554.696	646.945
558.658	762.206
562.618	712.452
566.576	893.944
570.533	1140.35
574.488	1294.11
578.44	1434.17
582.391	1609.54
586.341	2048.16
590.288	2535.8
594.233	2557.44
598.177	2633.92
602.119	2375.74
606.059	2361.49
609.997	2440.44
613.933	2288.23
617.868	2466.8
621.801	2152.6
625.731	2301.08
629.66	1761.28
633.588	1736.04
637.513	1696.73
641.437	1475.02
645.358	1114.84
649.278	884.057
653.196	1039.95
657.113	697.722
661.027	577.297
664.94	497.229
668.851	276.262
672.76	410.317
676.667	424.779
680.572	196.854
684.476	152.554
688.378	37.895
692.278	224.54
696.176	136.788
700.072	163.236
703.967	105.04
707.86	171.12
711.751	13.647
715.64	38.013
719.527	102.617
723.413	70.717
727.297	72.611
731.179	17.654
735.059	4.347
738.937	189.882
742.814	2.271
746.689	90.542
750.562	150.683
754.433	155.815
758.303	123.207
762.17	124.489
766.036	40.445
769.901	144.45
773.763	133.268
777.624	155.467
781.482	48.21
785.339	8.006
789.195	28.079
793.048	276.097
796.9	123.713
800.75	10.462
804.598	123.951
808.445	6.476
812.289	69.854
816.132	74.882
819.973	93.169
823.813	152.582
827.65	80.942
831.486	89.366
835.32	78.997
839.152	178.627
842.983	20.254
846.812	121.955
850.639	242.332
854.464	277.97
858.288	482.916
862.11	445.32
865.93	467.887
869.748	567.646
873.564	1050.28
877.379	569.723
881.192	956.751
885.004	766.94
888.813	1144.75
892.621	967.405
896.427	1092.4
900.232	1074.72
904.034	1131.97
907.835	1228.86
911.634	1182.81
915.432	1803.19
919.227	1533.65
923.021	1555.8
926.813	1785.27
930.604	2136.82
934.393	2373.32
938.18	2959.59
941.965	3464.85
945.749	3687.38
949.53	4480.9
953.311	5139.24
957.089	5569.02
960.866	5817.69
964.641	5875.64
968.414	5491.93
972.185	5117.01
975.955	4728.73
979.723	4330.38
983.49	4371.6
987.254	3617.07
991.017	3363.46
994.779	3450.51
998.538	3479.84
1002.3	3458.95
1006.05	3617.78
1009.81	3764.46
1013.56	4014.01
1017.31	4330.47
1021.06	4732.73
1024.81	5145.96
1028.55	5499.94
1032.3	5708.87
1036.04	6120.74
1039.78	6265.5
1043.52	6543.11
1047.26	5932.52
1050.99	5538.62
1054.73	5137.56
1058.46	4799.18
1062.19	4448.47
1065.92	3785.4
1069.65	3443.03
1073.37	3236.3
1077.1	2751.19
1080.82	2639.65
1084.54	2313.85
1088.26	2226.49
1091.97	2070.04
1095.69	2004.33
1099.4	1858.73
1103.12	1745.39
1106.83	1468.16
1110.54	1533.24
1114.24	1391.77
1117.95	1379.06
1121.65	1595.24
1125.35	1617.85
1129.06	947.979
1132.75	1088.25
1136.45	1144.55
1140.15	805.092
1143.84	693.371
1147.53	719
1151.22	511.426
1154.91	286.785
1158.6	430.781
1162.28	281.199
1165.97	481.393
1169.65	275.955
1173.33	312.449
1177.01	329.291
1180.69	118.254
1184.36	189.938
1188.04	268.479
1191.71	255.281
1195.38	180.945
1199.05	68.869
1202.71	414.902
1206.38	157.012
1210.04	137.549
1213.71	148.957
1217.37	111.318
1221.03	145.209
1224.68	155.043
1228.34	204.146
1231.99	48.91
1235.65	19.27
1239.3	108.525
1242.95	79.52
1246.59	86.424
1250.24	44.127
1253.88	75.021
1257.53	120.281
1261.17	44.436
1264.81	2.592
1268.45	75.352
1272.08	86.307
1275.72	118.812
1279.35	7.41
1282.98	64.338
1286.61	88.928
1290.24	130.963
1293.87	88.602
1297.49	41.963
1301.11	40.221
1304.73	46.715
1308.36	90.994
1311.97	31.303
1315.59	210.156
1319.2	15.932
1322.82	50.383
1326.43	218.076
1330.04	154.438
1333.65	14.203
1337.26	93.562
1340.86	154.963
1344.47	58.584
1348.07	332.385
1351.67	418.385
1355.27	305.297
1358.87	452.588
1362.46	414.561
1366.06	332.576
1369.65	516.709
1373.24	523.162
1376.83	381.846
1380.42	490.5
1384	428.535
1387.59	282.604
1391.17	343.637
1394.75	266.225
1398.33	270.641
1401.91	393.352
1405.49	258.996
1409.06	168.146
1412.64	261.445
1416.21	191.797
1419.78	251.176
1423.35	245.744
1426.91	189.998
1430.48	198.223
1434.05	172.236
1437.61	159.285
1441.17	196.113
1444.73	289.811
1448.29	239.986
1451.84	334.625
1455.4	421.777
1458.95	432.32
1462.5	86.146
1466.05	79.836
1469.6	244.861
1473.15	1.762
