Measurement: Raman, 532 nm, unoriented, Raman Data Processed
Mineral: Yoderite
Rruff sample: R050277
Ideal chemistry: (MgAl_3_)(MgAl)Al_2_O_2_(SiO_4_)_4_(OH)_2_
Locality: Mautia Hill, Kongwa, Central Province, Tanzania
Source: Marcus Origlieri
Description: Blue anhedral lathlike grains
Measured chemistry: (Mg_1.95_Mn_0.05_)_Σ=2_(Al_5.54_Fe^3+^_0.46_)_Σ=6_Si_4.00_O_18_(OH)_2_
Raman shift (cm-1)	intensity
145.574	0
148.467	3.92896
151.359	4.43213
154.252	3.96289
157.145	6.87695
160.038	3.93811
162.93	7.03662
165.823	9.77673
168.716	10.0681
171.608	9.98462
174.501	4.19617
177.394	0.809082
180.286	3.28345
183.179	1.95996
186.072	0.924438
188.965	7.13892
191.857	4.67224
194.75	7.42908
197.643	12.9485
200.535	16.2158
203.428	15.5272
206.321	7.45056
209.214	0.664917
212.106	0.435669
214.999	2.8905
217.892	0.442383
220.784	4.32361
223.677	4.52051
226.57	9.83337
229.462	16.7983
232.355	31.5026
235.248	39.1897
238.141	59.6276
241.033	82.6782
243.926	110.04
246.819	106.172
249.711	58.8945
252.604	28.4294
255.497	16.4153
258.389	14.1532
261.282	5.41162
264.175	6.82544
267.067	4.31982
269.96	5.38403
272.853	14.0472
275.746	12.9229
278.638	13.7024
281.531	14.8552
284.424	12.1925
287.316	6.92127
290.209	7.88635
293.102	2.74817
295.995	0.049072
298.887	1.22461
301.78	3.6842
304.673	11.0812
307.565	20.7213
310.458	23.4545
313.351	32.6097
316.243	38.1443
319.136	42.1791
322.029	38.2815
324.921	32.3806
327.814	27.0615
330.707	23.7681
333.6	15.6799
336.492	12.6974
339.385	13.7931
342.278	10.9255
345.17	12.4178
348.063	5.78625
350.956	1.5376
353.849	0.908691
356.741	2.42371
359.634	6.44238
362.527	3.60156
365.419	5.3855
368.312	9.36938
371.205	12.9246
374.097	18.9974
376.99	19.4905
379.883	23.9425
382.776	23.9584
385.668	20.594
388.561	17.9451
391.454	13.6644
394.346	10.8995
397.239	10.2742
400.132	13.7629
403.024	23.9475
405.917	27.8588
408.81	36.3492
411.702	46.8721
414.595	62.0892
417.488	74.1125
420.381	83.371
423.273	87.6829
426.166	85.5195
429.059	82.4443
431.951	85.4011
434.844	81.6549
437.737	86.1248
440.63	88.3652
443.522	88.174
446.415	87.4642
449.308	89.8684
452.2	89.2324
455.093	84.6138
457.986	82.8378
460.878	79.447
463.771	74.2838
466.664	78.228
469.557	78.6116
472.449	72.0233
475.342	66.985
478.235	60.3915
481.127	50.6155
484.02	36.8367
486.913	28.1682
489.805	19.1934
492.698	10.8212
495.591	8.79712
498.483	4.88147
501.376	2.84705
504.269	0.093628
507.162	6.01099
510.054	5.42517
512.947	4.56714
515.84	1.22168
518.732	1.0625
521.625	6.60388
524.518	7.68738
527.41	8.15234
530.303	15.1003
533.196	18.6331
536.089	20.4174
538.981	23.6334
541.874	25.969
544.767	37.2089
547.659	41.6627
550.552	45.7689
553.445	53.1913
556.337	58.5065
559.23	59.939
562.123	64.1748
565.016	65.0258
567.908	64.1519
570.801	63.8073
573.694	62.0713
576.586	67.9961
579.479	80.7028
582.372	91.1836
585.264	102.926
588.157	107.61
591.05	117.453
593.942	118.239
596.835	118.504
599.728	110.276
602.621	97.4888
605.513	84.3451
608.406	72.1187
611.299	59.3706
614.191	48.8295
617.084	40.5105
619.977	32.9231
622.87	25.5723
625.762	22.2026
628.655	20.4884
631.548	17.9657
634.44	10.8535
637.333	10.4794
640.226	6.59692
643.118	2.72485
646.011	1.83752
648.904	2.37476
651.797	2.71735
654.689	0.024963
657.582	0.222595
660.475	0.909424
663.367	1.05048
666.26	3.30396
669.153	1.5307
672.045	4.14593
674.938	3.32904
677.831	6.3985
680.723	8.0592
683.616	11.6871
686.509	12.7244
689.402	18.7432
692.294	18.9246
695.187	26.3489
698.08	33.3115
700.972	43.4273
703.865	52.1826
706.758	48.957
709.65	50.8602
712.543	45.6472
715.436	39.1291
718.329	26.9795
721.221	19.9524
724.114	12.7204
727.007	6.58301
729.899	6.58215
732.792	1.66095
735.685	0.582947
738.577	0.937683
741.47	0.247986
744.363	0.053894
747.256	1.46881
750.148	2.35382
753.041	2.59595
755.934	1.62775
758.826	2.03241
761.719	3.16675
764.612	7.41254
767.505	9.52173
770.397	7.13739
773.29	7.59662
776.183	11.6632
779.075	10.8748
781.968	8.25446
784.861	15.5231
787.753	16.6662
790.646	13.4935
793.539	17.5391
796.432	16.8894
799.324	11.2007
802.217	13.0775
805.11	11.8465
808.002	12.2645
810.895	10.5081
813.788	3.84705
816.68	7.41907
819.573	3.67468
822.466	5.6048
825.359	1.84338
828.251	1.59424
831.144	0.81781
834.037	1.46362
836.929	0.393677
839.822	1.60681
842.715	1.29755
845.607	1.02423
848.5	0.043152
851.393	3.30035
854.285	2.30743
857.178	1.66986
860.071	2.63843
862.964	5.49121
865.856	8.1532
868.749	14.9964
871.642	22.3035
874.534	28.6918
877.427	41.5595
880.32	52.8265
883.212	63.4907
886.105	78.5172
888.998	89.8919
891.891	103.91
894.783	111.339
897.676	121.362
900.569	133.886
903.461	145.196
906.354	148.57
909.247	155.093
912.139	157.995
915.032	161.176
917.925	167.741
920.818	171.065
923.71	172.989
926.603	174.024
929.496	173.178
932.388	166.303
935.281	148.676
938.174	129.249
941.067	112.899
943.959	94.9536
946.852	81.5216
949.745	65.4825
952.637	53.7398
955.53	50.7845
958.423	44.0362
961.315	33.5021
964.208	32.5174
967.101	26.1153
969.994	21.2855
972.886	18.5911
975.779	18.0209
978.672	14.1281
981.564	15.4508
984.457	10.6736
987.35	10.6298
990.242	8.15906
993.135	9.28522
996.028	5.38123
998.92	5.48578
1001.81	0.153503
1004.71	2.62237
1007.6	3.28967
1010.49	2.70367
1013.38	1.17389
1016.28	1.31317
1019.17	4.91986
1022.06	1.10602
1024.95	1.05444
1027.85	2.40796
1030.74	4.54627
1033.63	4.38471
1036.53	5.42627
1039.42	10.488
1042.31	6.45056
1045.2	4.92786
1048.1	10.371
1050.99	7.63794
1053.88	5.17773
1056.77	10.2775
1059.67	9.74036
1062.56	5.83539
1065.45	7.79126
1068.35	5.04559
1071.24	4.37854
1074.13	5.08179
1077.02	3.24432
1079.92	2.58569
1082.81	1.58936
1085.7	3.4317
1088.59	0.787109
1091.49	1.35919
1094.38	2.95343
1097.27	1.05029
1100.16	2.32153
1103.06	1.22394
1105.95	2.68298
1108.84	0.482056
1111.74	0.873657
1114.63	3.02661
1117.52	2.5061
1120.41	4.40442
1123.31	5.073
1126.2	2.65057
1129.09	2.40967
1131.98	6.60022
1134.88	8.61414
1137.77	8.79089
1140.66	4.92395
1143.56	9.38007
1146.45	5.82056
1149.34	1.67969
1152.23	1.33765
1155.13	1.59363
1158.02	2.57318
1160.91	0.149231
1163.8	4.37671
1166.7	4.75653
1169.59	6.70874
1172.48	5.05267
1175.38	4.72223
1178.27	4.0144
1181.16	6.49146
1184.05	6.03705
1186.95	5.63354
1189.84	5.58789
1192.73	5.81909
1195.62	5.24951
1198.52	4.34283
1201.41	8.82257
1204.3	4.43555
1207.19	7.43347
1210.09	3.86462
1212.98	0.221985
1215.87	3.21197
1218.77	3.18866
1221.66	1.98407
1224.55	0.992188
1227.44	2.49078
1230.34	3.90185
1233.23	5.86682
1236.12	3.47192
1239.02	1.72461
1241.91	1.20575
1244.8	1.2359
1247.69	2.15753
1250.59	5.1958
1253.48	5.66058
1256.37	2.72974
1259.26	2.43854
1262.16	2.30096
1265.05	3.66528
1267.94	0.493286
1270.83	4.62512
1273.73	1.36993
1276.62	2.00793
1279.51	0.695984
1282.4	1.65546
1285.3	2.30933
1288.19	1.41919
1291.08	0.208191
