Measurement: Raman, 780 nm, unoriented, Raman Data Processed
Mineral: Yoderite
Rruff sample: R050277
Ideal chemistry: (MgAl_3_)(MgAl)Al_2_O_2_(SiO_4_)_4_(OH)_2_
Locality: Mautia Hill, Kongwa, Central Province, Tanzania
Source: Marcus Origlieri
Description: Blue anhedral lathlike grains
Measured chemistry: (Mg_1.95_Mn_0.05_)_Σ=2_(Al_5.54_Fe^3+^_0.46_)_Σ=6_Si_4.00_O_18_(OH)_2_
Raman shift (cm-1)	intensity
144.741	0
147.634	0.076172
150.527	23.4727
153.419	57.6289
156.312	56.7285
159.205	74.1973
162.098	87.7266
164.99	105.481
167.883	149.449
170.776	150.773
173.668	131.861
176.561	71.8906
179.454	69.5977
182.346	89.3887
185.239	70.7305
188.132	140.545
191.025	191.06
193.917	198.272
196.81	222.377
199.703	263.949
202.595	248.01
205.488	189.822
208.381	176.453
211.274	145.705
214.166	100.654
217.059	136.09
219.952	124.606
222.844	174.713
225.737	228.703
228.63	310.441
231.522	339
234.415	385.955
237.308	462.078
240.201	581.939
243.093	626.055
245.986	618.475
248.879	392.209
251.771	182.461
254.664	97.793
257.557	29.0723
260.449	11.9238
263.342	21.5918
266.235	30.3242
269.127	33.9277
272.02	47.5801
274.913	1.0293
277.806	4.66992
280.698	9.42188
283.591	56.9043
286.484	0.535156
289.376	27.5312
292.269	7.81641
295.162	15.9844
298.055	1.54883
300.947	2.07812
303.84	49.3984
306.733	83.6269
309.625	117.037
312.518	181.578
315.411	263.775
318.303	316.144
321.196	307.268
324.089	242.984
326.981	165.81
329.874	144.986
332.767	100.356
335.66	75.8242
338.552	130.789
341.445	129.463
344.338	120.832
347.23	113.231
350.123	79.3418
353.016	47.8945
355.909	13.0078
358.801	75.0723
361.694	38.7012
364.587	23.293
367.479	62.3379
370.372	121.922
373.265	64.8242
376.157	52.8496
379.05	40.8379
381.943	28.3027
384.836	11.3105
387.728	5.83594
390.621	17.5977
393.514	5.17188
396.406	12.5801
399.299	21.7871
402.192	17.4512
405.084	73.5449
407.977	125.953
410.87	167.006
413.762	241.119
416.655	321.891
419.548	374.6
422.441	487.685
425.333	502.682
428.226	451.494
431.119	434.783
434.011	434.246
436.904	400.158
439.797	406.744
442.69	417.377
445.582	416.178
448.475	386.922
451.368	333.92
454.26	321.482
457.153	292.01
460.046	309.736
462.938	348.81
465.831	323.486
468.724	332.717
471.616	355.4
474.509	316.889
477.402	269.709
480.295	183.861
483.187	183.225
486.08	161.277
488.973	143.051
491.865	118.598
494.758	106.894
497.651	118.525
500.543	64.6387
503.436	32.7441
506.329	50.5801
509.222	37.9277
512.114	37.7168
515.007	28.8223
517.9	41.2207
520.792	76.0312
523.685	66.4356
526.578	43.3574
529.471	26.4102
532.363	17.5977
535.256	11.5605
538.149	14.2676
541.041	5.95117
543.934	10.5078
546.827	8.86914
549.719	26.377
552.612	13.0215
555.505	28.1465
558.398	31.0957
561.29	18.0449
564.183	6.44922
567.076	25.0332
569.968	105.644
572.861	84.0762
575.754	54.5449
578.646	112.555
581.539	94.1562
584.432	116.807
587.324	189.965
590.217	179
593.11	203.244
596.003	140.961
598.895	144.873
601.788	101.078
604.681	132.787
607.573	88.6641
610.466	47.2051
613.359	41.7754
616.251	40.7578
619.144	67.3945
622.037	83.6699
624.93	96.1426
627.822	76.4648
630.715	83.4394
633.608	46.4434
636.5	22.1367
639.393	42.4395
642.286	30.4531
645.178	9.16406
648.071	11.2598
650.964	3.57031
653.857	26.8633
656.749	12.8691
659.642	13.2812
662.535	62.3594
665.427	89.1816
668.32	112.981
671.213	61.6309
674.106	78.2969
676.998	90.5312
679.891	88.7891
682.784	88.6035
685.676	122.606
688.569	113.91
691.462	61.1055
694.354	95.4121
697.247	114.652
700.14	92.8633
703.033	114.893
705.925	108.592
708.818	133.586
711.711	140.572
714.603	84.3223
717.496	87.0254
720.389	113.881
723.281	41.9102
726.174	0.029297
729.067	10.5684
731.96	60.4219
734.852	31.8965
737.745	48.4629
740.638	34.0273
743.53	1.45703
746.423	49.832
749.316	70.8047
752.208	21.6797
755.101	4.16406
757.994	34.0703
760.886	35.1836
763.779	13.7422
766.672	5.06641
769.565	13.4219
772.457	56.7109
775.35	46.9453
778.243	68.0586
781.135	54.8379
784.028	51.7656
786.921	26.4648
789.813	69.6426
792.706	40.0586
795.599	80.4434
798.492	26.4551
801.384	6.97852
804.277	10.6445
807.17	124.475
810.062	96.9434
812.955	108.66
815.848	41.6797
818.74	63.1934
821.633	44.1465
824.526	71.1797
827.419	24.6914
830.311	64.5781
833.204	68.5098
836.097	57.5684
838.989	32.6758
841.882	58.1992
844.775	18.7383
847.668	40.6602
850.56	15.9336
853.453	7.65625
856.346	3.875
859.238	31.8828
862.131	13.5625
865.024	42.0391
867.916	51.5859
870.809	27.0059
873.702	33.7871
876.595	64.1152
879.487	71.8477
882.38	135.016
885.273	165.168
888.165	177.516
891.058	196.746
893.951	245.006
896.843	254.894
899.736	289.606
902.629	301.731
905.521	346.602
908.414	359.127
911.307	380.93
914.2	462.182
917.092	448.424
919.985	499.344
922.878	552.375
925.77	578.543
928.663	622.793
931.556	601.088
934.448	544.387
937.341	491.123
940.234	440.877
943.126	427.1
946.019	343.879
948.912	291.514
951.805	256.963
954.697	237.775
957.59	222.707
960.483	215.916
963.375	172.234
966.268	94.7656
969.161	102.871
972.053	47.2363
974.946	53.9453
977.839	9.69727
980.732	13.2969
983.624	12.7715
986.517	32.2637
989.41	51.2832
992.302	9.69531
995.195	63.9648
998.088	41.1895
1000.98	43.5293
1003.87	25.9688
1006.77	1.83008
1009.66	0.761719
1012.55	24.8379
1015.44	57.1758
1018.34	70.6719
1021.23	49.0605
1024.12	30.0137
1027.02	71.2617
1029.91	94.9453
1032.8	72.6816
1035.69	90.1269
1038.59	158.258
1041.48	129.725
1044.37	107.084
1047.26	76.041
1050.16	89.6426
1053.05	110.688
1055.94	103.32
1058.84	95.5781
1061.73	157.393
1064.62	120.531
1067.51	78.0664
1070.4	110.498
1073.3	93.4766
1076.19	105.32
1079.08	106.664
1081.98	113.035
1084.87	89.9062
1087.76	85.1465
1090.65	105.809
1093.55	127.516
1096.44	87.4043
1099.33	87.207
1102.22	21.793
1105.12	43.8945
1108.01	7.16406
1110.9	15.4062
1113.8	10.4219
1116.69	17.2285
1119.58	5.75
1122.47	63.5996
1125.37	46.9512
1128.26	21.8223
1131.15	1.83594
1134.05	15.1406
1136.94	52.5195
1139.83	47.375
1142.72	44.0488
1145.62	43.7852
1148.51	88.7305
1151.4	93.5508
1154.29	115.436
1157.19	124.246
1160.08	121.758
1162.97	107.199
1165.86	82.6094
1168.76	84.5547
1171.65	109.928
1174.54	135.742
1177.43	119.33
1180.33	169.002
1183.22	144.012
1186.11	147.029
1189.01	144.15
1191.9	135.336
1194.79	122.078
1197.68	129.828
1200.58	85.4453
1203.47	125.344
1206.36	95.0352
1209.26	34.3809
1212.15	54.9512
1215.04	46.7109
1217.93	76.2656
1220.83	34.0859
1223.72	14.3945
1226.61	2.41211
1229.5	33.5918
1232.4	13.5977
1235.29	23.0449
1238.18	62.1699
1241.08	7.35547
1243.97	15.4355
1246.86	27.4277
1249.75	22.2676
1252.64	28.8945
1255.54	20.3008
1258.43	15.9648
1261.32	16.6934
1264.22	31.3398
1267.11	27.1621
1270	45.9824
1272.89	23.1328
1275.79	33.0957
1278.68	62.4766
1281.57	0.140625
