Measurement: Raman, 780 nm, unoriented, Raman Data Processed
Mineral: Yoshimuraite
Rruff sample: R050266
Ideal chemistry: Ba_4_Mn^2+^_4_Ti^4+^_2_(Si_2_O_7_)_2_(PO_4_)_2_O_2_(OH)_2_
Locality: Taguchi mine, Shidara, Kitashidara-Gun, Aichi Prefecture, Japan
Source: Marcus Origlieri
Description: Brown tabular crystals associated with katophorite, R050633.
Measured chemistry: (Ba_1.82_Sr_0.18_)_Σ=2_(Ti_0.78_Fe^3+^_0.22_)_Σ=1_(Mn^2+^_1.62_Fe^2+^_0.38_)_Σ=2_O(Si_2.00_O_7_)((P_0.59_S_0.41_)_Σ=1_O_4_)((OH)_0.81_O_0.19_)_Σ=1_; OH estimated by charge balance
Raman shift (cm-1)	intensity
146.505	0
149.397	13.8999
152.29	0.779785
155.183	9.03369
158.075	5.45459
160.968	15.1982
163.861	13.8984
166.753	5.71045
169.646	10.8188
172.539	2.68994
175.431	4.42139
178.324	11.6719
181.217	11.251
184.11	9.9668
187.002	13.6602
189.895	11.4785
192.788	12.186
195.68	21.5469
198.573	20.5244
201.466	8.78369
204.358	30.8887
207.251	29.1069
210.144	26.1299
213.037	31.4536
215.929	44.9605
218.822	42.9033
221.715	59.4185
224.607	57.041
227.5	68.5957
230.393	70.2417
233.286	61.148
236.178	68.4458
239.071	62.833
241.964	45.9541
244.856	39.1728
247.749	27.9307
250.642	17.3545
253.534	13.3848
256.427	5.82129
259.32	2.27832
262.212	6.21338
265.105	4.13281
267.998	8.90527
270.891	23.6748
273.783	12.25
276.676	24.1572
279.569	28.1826
282.461	44.4531
285.354	38.5137
288.247	35.981
291.139	30.2979
294.032	21.4126
296.925	11.6514
299.817	25.2173
302.71	30.5469
305.603	23.6841
308.496	29.2358
311.388	41.3247
314.281	39.2437
317.174	47.75
320.066	43.0508
322.959	51.5928
325.852	66.3735
328.745	60.9888
331.637	64.8809
334.53	77.7793
337.423	89.3755
340.315	94.2437
343.208	98.6182
346.101	90.0801
348.993	96.23
351.886	89.8232
354.779	83.7617
357.671	115.904
360.564	102.972
363.457	98.7871
366.35	84.8272
369.242	88.9443
372.135	77.8232
375.028	61.231
377.92	52.7568
380.813	39.4082
383.706	42.4937
386.599	44.957
389.491	54.9727
392.384	74.0249
395.277	92.5166
398.169	105.188
401.062	110.349
403.955	116.564
406.847	105.936
409.74	85.5356
412.633	70.5527
415.526	42.4746
418.418	33.4727
421.311	21.0034
424.204	0.760254
427.096	11.2021
429.989	9.4751
432.882	8.03125
435.774	11.4556
438.667	7.2832
441.56	12.5449
444.452	28.395
447.345	32.3613
450.238	25.2378
453.13	40.3994
456.023	42.3867
458.916	40.3398
461.809	59.9697
464.701	49.7134
467.594	52.4941
470.487	61.6606
473.379	68.1948
476.272	58.2822
479.165	36.6504
482.058	20.2861
484.95	12.9746
487.843	9.17139
490.736	9.67725
493.628	4.87817
496.521	8.5354
499.414	0.64624
502.306	1.57666
505.199	13.5305
508.092	3.9812
510.985	1.35773
513.877	1.59228
516.77	8.77173
519.663	10.6155
522.555	3.78076
525.448	3.54761
528.341	11.8511
531.233	5.02393
534.126	2.64209
537.019	4.26831
539.912	0.02124
542.804	5.1189
545.697	0.406494
548.59	3.7561
551.482	5.57056
554.375	20.2556
557.268	21.478
560.16	26.887
563.053	37.1917
565.946	53.1179
568.838	79.0169
571.731	109.303
574.624	130.793
577.516	173.158
580.409	201.045
583.302	234.806
586.195	246.618
589.087	207.803
591.98	159.257
594.873	112.402
597.765	74.4526
600.658	67.0354
603.551	48.4106
606.443	35.0915
609.336	17.6057
612.229	24.4302
615.122	18.5737
618.014	35.3516
620.907	31.8044
623.8	37.3355
626.692	53.2144
629.585	65.9358
632.478	90.6694
635.37	124.451
638.263	169.43
641.156	185.084
644.049	150.915
646.941	147.848
649.834	135.522
652.727	125.049
655.619	117.737
658.512	127.837
661.405	125.358
664.298	136.738
667.19	152.413
670.083	159.495
672.976	144.367
675.868	112.813
678.761	74.2188
681.654	62.0627
684.546	43.1116
687.439	24.9856
690.332	24.9744
693.225	23.2876
696.117	24.876
699.01	31.3408
701.903	16.4509
704.795	20.2998
707.688	11.478
710.581	15.654
713.473	6.53369
716.366	5.16919
719.259	4.57715
722.151	0.726563
725.044	2.82471
727.937	1.75147
730.83	1.16943
733.722	12.5361
736.615	7.44849
739.508	7.19629
742.4	1.91821
745.293	3.01465
748.186	13.4146
751.078	10.5967
753.971	4.36572
756.864	2.14551
759.756	5.01587
762.649	15.5803
765.542	20.8452
768.435	50.8804
771.327	54.4697
774.22	80.7578
777.113	100.51
780.005	114.976
782.898	139.518
785.791	136.707
788.683	140.11
791.576	134.911
794.469	116.354
797.362	105.984
800.254	75.6643
803.147	61.4961
806.04	48.3423
808.932	27.6299
811.825	18.0164
814.718	1.80103
817.611	16.5244
820.503	5.73389
823.396	13.134
826.289	19.352
829.181	27.9817
832.074	34.6733
834.967	48.8274
837.859	58.7798
840.752	75.6106
843.645	71.1199
846.538	61.4456
849.43	54.22
852.323	69.0298
855.216	64.345
858.108	70.4507
861.001	78.1804
863.894	95.4802
866.786	107.865
869.679	121.829
872.572	127.494
875.464	118.148
878.357	115.901
881.25	80.8276
884.143	66.967
887.035	64.7615
889.928	41.375
892.821	37.4089
895.713	30.6043
898.606	16.6577
901.499	14.8735
904.391	3.26489
907.284	1.96777
910.177	5.02295
913.069	18.2737
915.962	19.8848
918.855	37.9165
921.748	41.637
924.64	62.5283
927.533	94.2639
930.426	141.106
933.318	170.576
936.211	171.228
939.104	159.568
941.996	124.964
944.889	89.5557
947.782	69.614
950.675	50.1467
953.567	32.73
956.46	22.5381
959.353	9.16528
962.245	1.85815
965.138	7.31323
968.031	8.09155
970.923	13.0298
973.816	4.36694
976.709	10.8425
979.602	32.6362
982.494	68.7373
985.387	107.613
988.28	159.83
991.172	207.23
994.065	210.505
996.958	146.572
999.851	75.7297
1002.74	53.8875
1005.64	59.3303
1008.53	59.8623
1011.42	62.9419
1014.31	76.3472
1017.21	74.9688
1020.1	84.77
1022.99	82.4087
1025.88	71.032
1028.78	59.3054
1031.67	40.9522
1034.56	35.4609
1037.46	41.8467
1040.35	33.657
1043.24	32.9495
1046.13	35.3582
1049.03	38.9448
1051.92	52.9419
1054.81	64.7627
1057.7	70.6509
1060.6	76.1455
1063.49	77.6313
1066.38	61.9802
1069.28	38.9316
1072.17	23.8071
1075.06	12.5303
1077.95	2.66235
1080.85	4.69897
1083.74	1.8103
1086.63	5.83862
1089.52	6.72339
1092.42	2.81812
1095.31	1.6272
1098.2	1.18603
1101.1	6.73804
1103.99	22.1992
1106.88	27.0742
1109.77	38.2703
1112.67	53.2017
1115.56	38.9775
1118.45	21.7578
1121.34	14.2507
1124.24	15.4385
1127.13	5.15967
1130.02	0.344971
1132.91	3.56226
1135.81	4.61426
1138.7	4.32739
1141.59	5.48608
1144.48	0.587158
1147.38	8.03882
1150.27	9.74268
1153.16	5.93335
1156.06	20.187
1158.95	29.5977
1161.84	33.1587
1164.73	37.5569
1167.63	22.9196
1170.52	15.3412
1173.41	18.0292
1176.31	25.4968
1179.2	27.7742
1182.09	36.401
1184.98	47.5136
1187.88	45.1855
1190.77	38.4221
1193.66	26.7843
1196.55	15.7189
1199.45	15.0405
1202.34	25.2216
1205.23	19.6759
1208.12	16.8744
1211.02	20.5355
1213.91	30.762
1216.8	32.5008
1219.7	21.1645
1222.59	24.215
1225.48	23.1926
1228.37	27.2223
1231.27	15.015
1234.16	23.2548
1237.05	15.8551
1239.94	18.2127
1242.84	11.4866
1245.73	8.73279
1248.62	10.8517
1251.52	5.54614
1254.41	6.93494
1257.3	4.07642
1260.19	5.89905
1263.09	2.44946
1265.98	4.92175
1268.87	2.66602
1271.76	2.41126
1274.66	3.51404
1277.55	10.1106
1280.44	5.06531
1283.34	16.8948
1286.23	0
