Measurement: Raman, 780 nm, unoriented, Raman Data Processed
Mineral: Yttrotantalite-(Y)
Rruff sample: R060022
Ideal chemistry: (Y^3+^,U^6+^,Fe^2+^)(Ta^5+^,Nb^5+^)_2_(O,OH)_4_
Locality: Swaziland
Source: American Museum of Natural History
Description: Brown glassy amorphous, note that a fragment of this sample was heated and is posted at R080046
Measured chemistry: (Y_0.53_Ca_0.47_)_Σ=1_(Ta_0.89_Nb_0.62_Fe_0.32_Mn_0.06_U_0.05_Ti_0.03_Th_0.02_)_Σ=2_(O_5.28_(OH)_0.72_)_Σ=6_
Raman shift (cm-1)	intensity
161.466	0.040619
164.359	0.104309
167.252	0.020325
170.144	0.09967
173.037	0.01059
175.93	0.059906
178.822	0.613205
181.715	0.181686
184.608	0.286621
187.501	1.13138
190.393	1.17616
193.286	0.955093
196.179	1.6391
199.071	1.67555
201.964	2.03581
204.857	2.02771
207.75	2.02556
210.642	2.45544
213.535	2.48512
216.428	2.07463
219.32	2.6743
222.213	2.74367
225.106	2.78154
227.998	2.7813
230.891	2.65923
233.784	2.2298
236.677	3.03108
239.569	1.82947
242.462	2.32814
245.355	1.62132
248.247	2.11069
251.14	2.2668
254.033	1.31111
256.925	1.79716
259.818	1.1935
262.711	0.78038
265.603	1.53699
268.496	1.69843
271.389	1.7973
274.282	1.54915
277.174	1.55609
280.067	1.64137
282.96	1.25879
285.852	1.45212
288.745	1.42393
291.638	0.72496
294.531	0.461548
297.423	0.80014
300.316	0.658539
303.209	0.790085
306.101	0.454163
308.994	0.401489
311.887	0.245239
314.779	0.247742
317.672	0.14299
320.565	0.052994
323.457	0.540878
326.35	0.089996
329.243	0.268219
332.136	0.102646
335.028	0.109985
337.921	0.221924
340.814	0.131958
343.706	0.659744
346.599	0.144333
349.492	0.349808
352.385	0.569412
355.277	0.66066
358.17	0.816879
361.063	0.276993
363.955	0.227432
366.848	0.29512
369.741	0.546738
372.633	0.484039
375.526	0.016266
378.419	0.388458
381.312	0.218292
384.204	0.306839
387.097	0.330521
389.99	0.508408
392.882	0.287613
395.775	0.778229
398.668	0.309372
401.56	0.438446
404.453	0.177231
407.346	0.576874
410.238	0.61972
413.131	0.621796
416.024	0.659851
418.916	0.541138
421.809	0.783806
424.702	1.27668
427.595	1.67874
430.487	1.03663
433.38	1.35615
436.273	1.17059
439.165	1.58054
442.058	1.40369
444.951	1.58963
447.844	2.12759
450.736	1.25761
453.629	1.36861
456.522	1.49835
459.414	2.45146
462.307	1.52037
465.2	1.35261
468.092	1.64349
470.985	1.79485
473.878	1.94582
476.771	1.40049
479.663	2.00154
482.556	1.62468
485.449	1.09267
488.341	1.36816
491.234	0.68158
494.127	1.29375
497.019	0.961525
499.912	1.40178
502.805	0.963951
505.697	1.09529
508.59	0.6633
511.483	0.770485
514.376	0.680756
517.268	0.426323
520.161	0.237694
523.054	0.195305
525.946	0.126205
528.839	0.032471
531.732	0.10318
534.625	0.233292
537.517	0.221199
540.41	0.181152
543.303	0.091103
546.195	0.162086
549.088	0.083015
551.981	0.126381
554.873	0.099228
557.766	1.16587
560.659	0.565903
563.552	0.57576
566.444	0.591606
569.337	0.655602
572.23	0.853371
575.122	1.28207
578.015	1.35107
580.908	1.45156
583.8	1.28827
586.693	1.67605
589.586	2.00163
592.479	1.94315
595.371	2.08696
598.264	2.0986
601.157	2.53815
604.049	2.08657
606.942	2.34766
609.835	2.49073
612.727	2.35616
615.62	2.38837
618.513	2.75201
621.405	2.52552
624.298	2.90218
627.191	3.01183
630.084	3.15693
632.976	2.85627
635.869	2.9304
638.762	3.12618
641.654	2.87763
644.547	2.75208
647.44	3.02402
650.332	2.83817
653.225	2.51498
656.118	2.05697
659.011	2.24243
661.903	2.17169
664.796	2.0996
667.689	1.75629
670.581	1.93416
673.474	1.69075
676.367	1.2003
679.26	1.19701
682.152	0.954208
685.045	0.614944
687.938	0.443832
690.83	0.20919
693.723	0.297356
696.616	0.035294
699.508	0.267838
702.401	0.142532
705.294	0.009689
708.187	0.04026
711.079	0.037872
713.972	0.132179
716.865	0.289391
719.757	0.649826
722.65	0.348541
725.543	0.356781
728.435	0.125023
731.328	0.315002
734.221	0.757927
737.113	0.957153
740.006	1.22276
742.899	1.55364
745.792	2.10743
748.684	2.5057
751.577	3.5196
754.47	3.70834
757.362	4.12904
760.255	4.8661
763.148	5.51399
766.04	7.11321
768.933	7.69598
771.826	8.86466
774.718	9.85754
777.611	10.39
780.504	11.5826
783.397	12.58
786.289	13.6445
789.182	14.8151
792.075	16.0995
794.967	16.2655
797.86	16.8137
800.753	16.4147
803.645	17.2779
806.538	16.9477
809.431	17.8597
812.324	17.3083
815.216	17.3689
818.109	16.8186
821.002	16.2859
823.894	15.5532
826.787	15.2484
829.68	14.4796
832.572	13.8157
835.465	12.9624
838.358	12.2079
841.251	11.5119
844.143	10.8821
847.036	9.54066
849.929	8.76608
852.821	7.89435
855.714	7.05465
858.607	6.17072
861.5	5.59652
864.392	4.60919
867.285	4.00636
870.178	2.87775
873.07	2.30705
875.963	1.82371
878.856	2.02863
881.748	0.880569
884.641	0.29055
887.534	0.007889
890.427	0.128479
893.319	0.10788
896.212	0.149986
899.105	0.179054
901.997	0.267754
904.89	0.267227
907.783	0.074745
910.675	0.104668
913.568	0.03754
916.461	0.19075
919.354	0.226852
922.246	0.476368
925.139	0.370155
928.032	0.397873
930.924	0.325703
933.817	0.169338
936.71	0.100338
939.602	0.204433
942.495	0.12875
945.388	0.050777
948.28	0.07761
951.173	0.174526
954.066	0.019375
956.959	0.000885
959.851	0.014759
962.744	0.058319
965.637	0.10466
968.529	0.188358
971.422	0.320854
974.315	0.637291
977.207	0.740799
980.1	1.12253
982.993	1.00257
985.886	1.05178
988.778	1.34369
991.671	1.85263
994.564	2.10193
997.456	2.25812
1000.35	2.385
1003.24	2.39369
1006.13	2.63258
1009.03	3.03221
1011.92	2.65244
1014.81	2.84209
1017.71	2.76142
1020.6	2.64159
1023.49	2.73314
1026.38	2.24689
1029.28	2.34841
1032.17	2.34221
1035.06	2.13146
1037.95	1.99266
1040.85	2.18294
1043.74	1.92322
1046.63	1.63551
1049.53	1.68004
1052.42	1.58364
1055.31	1.71058
1058.2	1.53734
1061.1	1.52035
1063.99	1.36704
1066.88	1.28257
1069.77	1.15324
1072.67	1.12417
1075.56	0.893211
1078.45	1.2555
1081.35	0.849442
1084.24	0.892025
1087.13	1.18746
1090.02	0.910233
1092.91	0.608871
1095.81	0.461739
1098.7	0.561604
1101.59	0.435982
1104.49	0.360668
1107.38	0.386524
1110.27	0.466099
1113.16	0.439629
1116.06	0.263573
1118.95	0.139683
1121.84	0.000656
1124.73	0.233391
1127.63	0.234367
1130.52	0.007515
1133.41	0.072987
1136.31	0.003414
1139.2	0.144745
1142.09	0.036663
1144.98	0.01685
1147.88	0.091614
1150.77	0.173298
1153.66	0.119183
1156.56	0.14814
1159.45	0.026192
1162.34	0.12059
1165.23	0.029758
1168.13	0.161373
1171.02	0.029621
1173.91	0.238243
1176.8	0.06908
1179.7	0.175743
1182.59	0.305286
1185.48	0.173046
1188.38	0.025711
1191.27	0.127872
1194.16	0.099461
1197.05	0.16111
1199.94	0.099701
1202.84	0.151588
1205.73	0.334751
1208.62	0.130898
1211.52	0.069046
1214.41	0.321423
1217.3	0.478256
1220.19	0.223263
1223.09	0.049618
1225.98	0.228027
1228.87	0.421288
1231.77	0.27668
1234.66	0.152893
1237.55	0.339432
1240.44	0.300526
1243.34	0.358536
1246.23	0.196499
1249.12	0.126328
1252.01	0.1451
1254.91	0.397129
1257.8	0.024712
1260.69	0.108047
1263.59	0.042133
1266.48	0.007935
