Measurement: Raman, 532 nm, unoriented, Raman Data Processed
Mineral: Yttrotantalite-(Y)
Rruff sample: R060022
Ideal chemistry: (Y^3+^,U^6+^,Fe^2+^)(Ta^5+^,Nb^5+^)_2_(O,OH)_4_
Locality: Swaziland
Source: American Museum of Natural History
Description: Brown glassy amorphous, note that a fragment of this sample was heated and is posted at R080046
Measured chemistry: (Y_0.53_Ca_0.47_)_Σ=1_(Ta_0.89_Nb_0.62_Fe_0.32_Mn_0.06_U_0.05_Ti_0.03_Th_0.02_)_Σ=2_(O_5.28_(OH)_0.72_)_Σ=6_
Raman shift (cm-1)	intensity
174.71	0
177.603	0.16423
180.496	0.257874
183.388	0.396126
186.281	0.967079
189.174	0.528824
192.067	0.609226
194.959	0.45343
197.852	0.634357
200.745	0.367947
203.637	0.622177
206.53	0.69405
209.423	0.792408
212.315	0.884159
215.208	0.826096
218.101	1.00337
220.994	0.95739
223.886	1.14092
226.779	0.834743
229.672	0.529133
232.564	0.6796
235.457	0.441189
238.35	0.3568
241.243	0.465012
244.135	0.540989
247.028	0.710148
249.921	1.19228
252.813	0.888996
255.706	1.04605
258.599	0.745033
261.491	0.598221
264.384	0.511696
267.277	0.482773
270.17	0.413074
273.062	0.474895
275.955	0.257427
278.848	0.392708
281.74	0.201611
284.633	0.383991
287.526	0.119823
290.418	0.016655
293.311	0.052387
296.204	0.021091
299.096	0.107399
301.989	0.127739
304.882	0.166988
307.775	0.09943
310.667	0.190868
313.56	0.011425
316.453	0.006737
319.345	0.216003
322.238	0.037762
325.131	0.167313
328.024	0.335068
330.916	0.589821
333.809	0.711945
336.702	0.60561
339.594	1.14383
342.487	1.03242
345.38	1.20961
348.272	1.25138
351.165	1.16016
354.058	1.53844
356.95	1.32485
359.843	1.52923
362.736	1.67905
365.629	1.68828
368.521	1.93379
371.414	2.08208
374.307	1.93894
377.199	1.92489
380.092	1.6469
382.985	1.72647
385.877	1.70455
388.77	1.58104
391.663	1.98886
394.556	1.96949
397.448	1.47165
400.341	1.90321
403.234	1.7116
406.126	2.10493
409.019	1.97105
411.912	1.55282
414.805	1.52638
417.697	1.6016
420.59	1.50766
423.483	1.35512
426.375	1.27741
429.268	1.74058
432.161	1.67324
435.053	1.07842
437.946	0.568512
440.839	0.492283
443.731	0.722885
446.624	0.64653
449.517	0.506622
452.409	0.501785
455.302	0.350338
458.195	0.097141
461.088	0.323616
463.98	0.561951
466.873	0.553509
469.766	0.543823
472.658	0.605072
475.551	0.743622
478.444	0.899895
481.337	0.610416
484.229	0.530716
487.122	0.473438
490.015	0.514446
492.907	0.616421
495.8	0.307022
498.693	0.143616
501.585	0.315861
504.478	0.43755
507.371	0.150295
510.264	0.357861
513.156	0.216251
516.049	0.087177
518.942	0.260857
521.834	0.099361
524.727	0.023331
527.62	0.000488
530.513	0.037983
533.405	0.222794
536.298	0.082508
539.191	0.085503
542.083	0.216957
544.976	0.053841
547.869	0.119293
550.761	0.412216
553.654	0.126091
556.547	0.033104
559.439	0.144527
562.332	0.231098
565.225	0.057255
568.118	0.046467
571.01	0.269833
573.903	0.128914
576.796	0.285034
579.688	0.455147
582.581	0.373363
585.474	0.307079
588.366	0.506874
591.259	0.439728
594.152	0.516525
597.044	0.43998
599.937	0.872757
602.83	1.00766
605.723	0.895
608.615	0.777721
611.508	0.941734
614.401	0.951694
617.293	0.874763
620.186	1.04517
623.079	0.949116
625.971	1.11272
628.864	1.0098
631.757	0.983585
634.65	1.07814
637.542	1.22669
640.435	0.899441
643.328	0.845085
646.22	1.08802
649.113	1.02383
652.006	1.02902
654.899	0.672295
657.791	0.733776
660.684	0.842262
663.577	0.436249
666.469	0.640152
669.362	0.559189
672.255	0.472042
675.147	0.199459
678.04	0.187908
680.933	0.102776
683.826	0.029522
686.718	0.187046
689.611	0.074661
692.504	0.156223
695.396	0.087696
698.289	0.30212
701.182	0.043312
704.074	0.266949
706.967	0.146523
709.86	0.021469
712.753	0.043591
715.645	0.009811
718.538	0.081795
721.431	0.097794
724.323	0.340179
727.216	0.514801
730.109	0.35075
733.001	0.362339
735.894	0.547974
738.787	0.749802
741.679	0.94149
744.572	0.815277
747.465	1.16847
750.358	1.40412
753.25	2.08975
756.143	2.01258
759.036	2.32226
761.928	2.65662
764.821	3.11994
767.714	3.29715
770.606	3.84981
773.499	4.10715
776.392	4.9325
779.285	4.88453
782.177	5.55811
785.07	5.91826
787.963	6.50106
790.855	6.44651
793.748	6.65297
796.641	6.84744
799.533	7.40856
802.426	6.98067
805.319	7.44489
808.212	7.35066
811.104	7.21672
813.997	6.78875
816.89	6.92821
819.782	6.66022
822.675	6.58397
825.568	6.40905
828.46	6.03125
831.353	5.786
834.246	5.54421
837.139	4.83236
840.031	4.73271
842.924	4.02729
845.817	4.00797
848.709	3.74464
851.602	3.39158
854.495	3.04027
857.388	2.59397
860.28	2.36462
863.173	1.73351
866.066	1.28883
868.958	0.963123
871.851	0.840763
874.744	0.689514
877.636	0.455811
880.529	0.480762
883.422	0.213181
886.314	0.107456
889.207	0.310692
892.1	0.040771
894.993	0.042656
897.885	0.113201
900.778	0.156128
903.671	0.08707
906.563	0.027294
909.456	0.195683
912.349	0.377144
915.241	0.01749
918.134	0.221767
921.027	0.243374
923.92	0.196762
926.812	0.104204
929.705	0.034424
932.598	0.235149
935.49	0.020157
938.383	0.083506
941.276	0.059755
944.168	0.127983
947.061	0.049509
949.954	0.134941
952.847	0.085165
955.739	0.130791
958.632	0.123325
961.525	0.050592
964.417	0.040209
967.31	0.073069
970.203	0.101643
973.096	0.231018
975.988	0.28932
978.881	0.483282
981.774	0.555653
984.666	0.503054
987.559	0.71735
990.452	0.569189
993.344	0.631832
996.237	0.873875
999.13	0.780199
1002.02	0.908878
1004.91	1.06038
1007.81	0.990099
1010.7	1.00757
1013.59	1.10185
1016.49	1.07613
1019.38	1.06455
1022.27	0.959866
1025.16	0.939356
1028.06	1.07079
1030.95	0.823921
1033.84	0.743716
1036.73	0.704681
1039.63	0.772339
1042.52	0.738173
1045.41	0.669426
1048.31	0.564128
1051.2	0.670531
1054.09	0.516957
1056.98	0.622873
1059.88	0.540617
1062.77	0.44627
1065.66	0.49762
1068.56	0.318373
1071.45	0.352114
1074.34	0.450379
1077.23	0.407464
1080.12	0.42622
1083.02	0.53851
1085.91	0.441457
1088.8	0.320708
1091.7	0.322783
1094.59	0.31855
1097.48	0.286014
1100.37	0.174149
1103.27	0.071239
1106.16	0.054301
1109.05	0.017513
1111.94	0.07104
1114.84	0.110497
1117.73	0.076303
1120.62	0.070428
1123.52	0.061932
1126.41	0.115461
1129.3	0.065489
1132.19	0.004262
1135.09	0.022141
1137.98	0.049215
1140.87	0.007236
1143.77	0.121079
1146.66	0.164536
1149.55	0.035079
1152.44	0.170794
1155.34	0.126142
1158.23	0.161123
1161.12	0.062639
1164.01	0.119764
1166.91	0.087163
1169.8	0.320269
1172.69	0.111048
1175.58	0.098062
1178.48	0.139364
1181.37	0.073588
1184.26	0.102819
1187.15	0.009459
1190.05	0.030511
1192.94	0.041156
1195.83	0.019163
1198.73	0.160034
1201.62	0.023671
1204.51	0.057468
1207.4	0.037651
1210.3	0.075204
1213.19	0.078761
1216.08	0.236886
1218.97	0.060939
1221.87	0.108957
1224.76	0.122156
1227.65	0.218639
1230.55	0.052521
1233.44	0.08709
1236.33	0.066152
1239.22	0.032474
1242.12	0.131583
1245.01	0.092399
1247.9	0.208021
1250.8	0.120635
1253.69	0.006099
1256.58	0.092602
1259.47	0.046544
1262.37	0.097824
1265.26	0.017872
1268.15	0.081766
1271.04	0.141884
1273.94	0.117985
1276.83	0.005287
