Measurement: Raman, 532 nm, unoriented, Raman Data Processed
Mineral: Yuksporite
Rruff sample: R060818
Ideal chemistry: K_4_(Ca,Na)_14_(Sr,Ba)_2_([box],Mn^2+^,Fe^3+^)(Ti^4+^,Nb^5+^)_4_(O,OH)_4_(Si_6_O_17_)_2_(Si_2_O_7_)_3_(H_2_O,OH)_3_
Locality: Chibiny, Kola Peninsula, Russia
Source: Bob Jenkins
Description: Aggregate of tan colored thin lamellae formed from parallel fibers
Raman shift (cm-1)	intensity
169.252	0
172.145	18.6294
175.038	30.9878
177.93	12.0391
180.823	43.5347
183.716	34.6103
186.608	25.8203
189.501	78.478
192.394	1.27393
195.286	48.1055
198.179	129.823
201.072	121.911
203.965	218.829
206.857	276.416
209.75	178.898
212.643	300.121
215.535	226.138
218.428	256.846
221.321	261.781
224.214	234.241
227.106	174.028
229.999	312.344
232.892	274.368
235.784	308.534
238.677	339.576
241.57	305.95
244.462	337.16
247.355	315.424
250.248	290.888
253.141	149.013
256.033	186.266
258.926	57.1694
261.819	182.22
264.711	169.104
267.604	165.168
270.497	238.175
273.389	228.625
276.282	336.818
279.175	403.585
282.067	486.903
284.96	514.893
287.853	461.386
290.746	370.97
293.638	362.965
296.531	338.027
299.424	320.416
302.316	312.456
305.209	334.459
308.102	288.203
310.994	141.853
313.887	160.141
316.78	51.1597
319.673	50.8774
322.565	6.42139
325.458	29.2349
328.351	5.30664
331.243	8.01465
334.136	194.883
337.029	166.714
339.921	300.179
342.814	354.433
345.707	512.873
348.599	625.072
351.492	765.146
354.385	903.496
357.278	930.708
360.17	935.894
363.063	926.124
365.956	905.711
368.848	861.6
371.741	746.405
374.634	706.776
377.526	647.096
380.419	445.714
383.312	403.897
386.205	337.333
389.097	291.756
391.99	220.657
394.883	129.983
397.775	71.8281
400.668	26.5469
403.561	33.0156
406.454	25.3623
409.346	40.8477
412.239	64.6689
415.132	148.793
418.024	233.195
420.917	233.283
423.81	293.874
426.702	238.194
429.595	292.478
432.488	337.657
435.38	332.252
438.273	236.668
441.166	280.1
444.059	368.859
446.951	350.231
449.844	298.214
452.737	363.431
455.629	437.753
458.522	431.668
461.415	485.876
464.308	365.159
467.2	402.071
470.093	412.032
472.986	342.094
475.878	355.481
478.771	259.896
481.664	219.195
484.556	161.362
487.449	135.356
490.342	25.4609
493.234	29.5654
496.127	51.252
499.02	19.0117
501.913	40.6523
504.805	13.1162
507.698	52.3926
510.591	172.638
513.483	197.081
516.376	300.013
519.269	349.18
522.161	424.79
525.054	371.61
527.947	402.941
530.84	384.69
533.732	306.565
536.625	263.949
539.518	238.944
542.41	193.489
545.303	153.52
548.196	152.576
551.088	113.032
553.981	75.9678
556.874	2.60059
559.766	2.95703
562.659	39.5508
565.552	43.9258
568.445	71.9365
571.337	121.802
574.23	149.657
577.123	235.406
580.015	260.19
582.908	437.209
585.801	410.329
588.693	355.116
591.586	226.555
594.479	247.054
597.372	171.251
600.264	90.1611
603.157	80.1465
606.05	112.694
608.942	69.0449
611.835	43.9668
614.728	31.5117
617.62	24.8184
620.513	57.2754
623.406	85.5488
626.298	206.53
629.191	207.386
632.084	296.79
634.977	422.554
637.869	559.633
640.762	631.22
643.655	581.451
646.547	414.795
649.44	483.11
652.333	589.887
655.226	680.551
658.118	848.569
661.011	843.226
663.904	919.494
666.796	1016.31
669.689	862.616
672.582	661.569
675.474	407.138
678.367	168.245
681.26	99.208
684.153	22.0312
687.045	3.69141
689.938	54.5508
692.831	39.2803
695.723	6.62305
698.616	3.0791
701.509	44.4902
704.401	42.708
707.294	114.106
710.187	50.9434
713.08	181.925
715.972	219.232
718.865	259.254
721.758	297.701
724.65	360.959
727.543	215.326
730.436	211.583
733.328	249.561
736.221	171.777
739.114	221.742
742.006	274.36
744.899	378.039
747.792	396.3
750.685	444.471
753.577	384.833
756.47	558.719
759.363	547.803
762.255	536.951
765.148	534.863
768.041	360.241
770.933	375.781
773.826	396.952
776.719	302.223
779.612	317.858
782.504	251.057
785.397	338.731
788.29	272.974
791.182	342.432
794.075	355.43
796.968	352.258
799.86	400.062
802.753	384.935
805.646	340.38
808.538	256.315
811.431	220.07
814.324	142.817
817.217	79.1338
820.109	24.6777
823.002	46.208
825.895	20.8242
828.787	2.96094
831.68	27.835
834.573	25.0859
837.466	33.8359
840.358	95.4238
843.251	223.25
846.144	313.923
849.036	386.891
851.929	487.482
854.822	686.186
857.714	692.684
860.607	894.664
863.5	1107.77
866.393	1134.14
869.285	1094.4
872.178	1150.44
875.071	1232.8
877.963	1365.14
880.856	1457.81
883.749	1497.23
886.641	1647.64
889.534	1618.06
892.427	1384.43
895.319	1289.56
898.212	906.937
901.105	644.594
903.998	478.716
906.89	247.312
909.783	184.99
912.676	104.783
915.568	47.3457
918.461	138.654
921.354	97.5244
924.246	241.97
927.139	248.124
930.032	151.19
932.925	242.339
935.817	291.743
938.71	291.592
941.603	376.676
944.495	436.818
947.388	507.662
950.281	381.163
953.173	535.055
956.066	461.228
958.959	550.055
961.851	595.347
964.744	611.177
967.637	429.507
970.53	376.918
973.422	435.014
976.315	467.998
979.208	401.213
982.1	325.4
984.993	267.1
987.886	162.334
990.779	148.775
993.671	106.915
996.564	196.97
999.457	52.6914
1002.35	122.218
1005.24	33.207
1008.13	64.0371
1011.03	4.2207
1013.92	31.7109
1016.81	32.5947
1019.71	63.0723
1022.6	38.4824
1025.49	65.5264
1028.38	182.169
1031.28	39.208
1034.17	76.2647
1037.06	142.99
1039.95	228.595
1042.85	180.653
1045.74	174.046
1048.63	73.4658
1051.53	204.553
1054.42	237.356
1057.31	338.252
1060.2	210.927
1063.1	206.765
1065.99	227.765
1068.88	248.272
1071.77	329.407
1074.67	436.235
1077.56	486.274
1080.45	690.568
1083.35	907.974
1086.24	948.6
1089.13	852.715
1092.02	693.881
1094.92	607.839
1097.81	585.355
1100.7	475.881
1103.59	325.19
1106.49	431.592
1109.38	287.784
1112.27	326.778
1115.16	172.506
1118.06	141.731
1120.95	76.374
1123.84	2.85644
1126.73	50.6299
1129.63	92.3496
1132.52	146.275
1135.41	57.6748
1138.31	115.102
1141.2	68.1328
1144.09	19.9424
1146.98	10.1709
1149.88	50.041
1152.77	143.204
1155.66	120.811
1158.56	9.20312
1161.45	157.657
1164.34	40.1611
1167.23	75.0801
1170.13	52.9639
1173.02	76.9209
1175.91	157.25
1178.8	161.353
1181.7	127.921
1184.59	209.128
1187.48	68.4531
1190.38	109.659
1193.27	52.8516
1196.16	92.6084
1199.05	86.085
1201.94	51.0273
1204.84	45.915
1207.73	42.0801
1210.62	95.5684
1213.52	85.7939
1216.41	162.754
1219.3	34.7051
1222.19	24.4775
1225.09	106.213
1227.98	46.8662
1230.87	161.52
1233.77	61.044
1236.66	131.906
1239.55	104.916
1242.44	189.351
1245.34	124.17
1248.23	171.507
1251.12	132.251
1254.01	46.2539
1256.91	34.3389
1259.8	10.9443
1262.69	2.80078
1265.59	224.798
1268.48	4.49609
1271.37	213.421
1274.26	94.3144
1277.16	137.834
1280.05	81.0918
1282.94	95.7471
1285.83	79.8691
1288.73	43.9453
1291.62	97.2793
1294.51	98.6973
1297.4	95.1094
1300.3	40.1211
