Measurement: Raman, 532 nm, unoriented, Raman Data Processed
Mineral: Zalesiite
Rruff sample: R070455
Ideal chemistry: Cu^2+^_6_Ca(As^5+^O_4_)_2_(As^5+^O_3_OH)(OH)_6_3H_2_O
Locality: Zálesí, Javorník, Olomouc Region, Moravia (Mähren; Maehren), Czech Republic
Source: Michael Scott
Description: Matted aggregates of pale blue-green microscopic fibers
Raman shift (cm-1)	intensity
158.833	0
161.726	60.1074
164.619	33.0508
167.512	99.8887
170.404	304.74
173.297	532.93
176.19	540.688
179.082	432.406
181.975	392.81
184.868	449.471
187.761	623.576
190.653	598.971
193.546	591.019
196.439	454.463
199.331	348.01
202.224	454.148
205.117	213.496
208.009	160.688
210.902	137.201
213.795	111.375
216.688	26.9434
219.58	104.725
222.473	204.205
225.366	239.82
228.258	240.062
231.151	467.228
234.044	388.695
236.936	330.85
239.829	260.965
242.722	121.887
245.614	303.096
248.507	208.666
251.4	202.227
254.293	211.93
257.185	189.975
260.078	210.688
262.971	131.148
265.863	219.644
268.756	236.572
271.649	212.746
274.541	273.269
277.434	198.303
280.327	179.529
283.22	176.344
286.112	325.463
289.005	258.147
291.898	103.648
294.79	72.6777
297.683	35.1816
300.576	43.7383
303.469	84.6914
306.361	66.5078
309.254	207.088
312.147	354.76
315.039	491.834
317.932	517
320.825	652.629
323.717	840.047
326.61	725.381
329.503	588.842
332.396	504.617
335.288	412.096
338.181	414.139
341.074	412.228
343.966	242.387
346.859	183.461
349.752	176.557
352.644	234.748
355.537	189.574
358.43	102.174
361.322	84.7578
364.215	64.7773
367.108	36.9453
370.001	41.1895
372.893	31.8613
375.786	57.7031
378.679	141.424
381.572	133.682
384.464	101.971
387.357	249.611
390.25	650.65
393.142	484.795
396.035	366.369
398.928	506.853
401.82	485.848
404.713	289.299
407.606	230.516
410.498	251.885
413.391	322.75
416.284	443.871
419.177	348.762
422.069	443.535
424.962	520.482
427.855	430.543
430.747	473.621
433.64	346.803
436.533	392.113
439.425	178.457
442.318	74.9023
445.211	35.5293
448.104	120.629
450.996	252.467
453.889	406.41
456.782	677.551
459.674	964.754
462.567	1102.63
465.46	1272.8
468.353	1562.19
471.245	1898.39
474.138	2341.96
477.031	2476.19
479.923	2538.49
482.816	2692.63
485.709	1865.81
488.601	1292.67
491.494	822.596
494.387	535.941
497.279	560.682
500.172	402.471
503.065	141.84
505.958	210.766
508.85	122.518
511.743	104.008
514.636	137.81
517.528	36.3223
520.421	37.8301
523.314	47.6191
526.207	173.482
529.099	108.897
531.992	381.156
534.885	416.26
537.777	444.371
540.67	348.033
543.563	419.377
546.455	320.734
549.348	311.924
552.241	276.44
555.134	374.863
558.026	308.658
560.919	233.441
563.812	225.547
566.704	214.477
569.597	331.393
572.49	303.135
575.382	246.209
578.275	43.6738
581.168	169.084
584.061	5.63477
586.953	9.29297
589.846	50.7031
592.739	142.074
595.631	12.0879
598.524	84.6191
601.417	86.1191
604.309	171.334
607.202	81.1074
610.095	146.406
612.987	63.998
615.88	104.768
618.773	1.20898
621.666	29.9922
624.558	130.35
627.451	34.2754
630.344	141.773
633.236	144.273
636.129	80.1699
639.022	124.609
641.915	122.768
644.807	161.891
647.7	217.566
650.593	173.025
653.485	46.5625
656.378	250.924
659.271	116.481
662.163	229.35
665.056	200.049
667.949	192.685
670.842	141.565
673.734	253.279
676.627	247.334
679.52	274.764
682.412	303.596
685.305	277.928
688.198	248.728
691.091	231.111
693.983	296.828
696.876	259.83
699.769	262.606
702.661	260.641
705.554	314.846
708.447	219.68
711.339	221.408
714.232	236.766
717.125	210.504
720.018	137.717
722.91	83.8594
725.803	32.1875
728.696	68.5469
731.588	139.971
734.481	100.768
737.374	26.0078
740.266	45.8828
743.159	11.4434
746.052	84.9824
748.944	1.00977
751.837	10.1309
754.73	2.2793
757.623	9.95312
760.515	65.7852
763.408	14.875
766.301	71.6211
769.193	12.8652
772.086	70.9062
774.979	75.0508
777.871	33.3223
780.764	66.5098
783.657	53.8496
786.55	114.848
789.442	114.215
792.335	204.285
795.228	15.5098
798.12	48.9902
801.013	53.6094
803.906	170.088
806.798	156.588
809.691	180.81
812.584	277.519
815.477	408.715
818.369	398.873
821.262	566.836
824.155	744.287
827.047	850.494
829.94	1334.22
832.833	871.273
835.726	982.004
838.618	911.881
841.511	1025.88
844.404	993.303
847.296	1187.59
850.189	1149.37
853.082	1401.93
855.975	1669.79
858.867	1970.09
861.76	2454.9
864.653	2792.66
867.545	2956.28
870.438	3164.15
873.331	2542.44
876.223	2079.19
879.116	1547.96
882.009	1154.87
884.902	807.447
887.794	568.834
890.687	439.048
893.58	412.706
896.472	271.654
899.365	88.7598
902.258	158.083
905.15	143.758
908.043	163.255
910.936	162.265
913.828	117.633
916.721	43.6992
919.614	77.4082
922.507	30.8936
925.399	53.5957
928.292	14.751
931.185	49.876
934.077	37.2598
936.97	11.2529
939.863	22.8271
942.755	6.9668
945.648	85.2852
948.541	46.3926
951.434	25.5391
954.326	65.4609
957.219	103.569
960.112	29.2979
963.004	49.8623
965.897	56.9004
968.79	93.5635
971.683	138.054
974.575	154.693
977.468	79.7812
980.361	133.795
983.253	48.3721
986.146	122.679
989.039	111.561
991.931	136.974
994.824	134.327
997.717	73.749
1000.61	140.97
1003.5	141.885
1006.39	52.2705
1009.29	213.179
1012.18	181.867
1015.07	112.858
1017.97	113.672
1020.86	31.7246
1023.75	120.42
1026.64	167.287
1029.54	210.794
1032.43	226.025
1035.32	85.0811
1038.21	53.4853
1041.11	72.2832
1044	46.3389
1046.89	16.5283
1049.79	2.30762
1052.68	55.5312
1055.57	24.9336
1058.46	63.4736
1061.36	75.792
1064.25	96.2949
1067.14	184.705
1070.03	178.951
1072.93	164.221
1075.82	148.9
1078.71	98.9141
1081.61	111.066
1084.5	134.23
1087.39	144.244
1090.28	83.9932
1093.18	105.782
1096.07	145.672
1098.96	82.1943
1101.85	77.8154
1104.75	58.6699
1107.64	0.484375
1110.53	62.29
1113.42	147.727
1116.32	82.832
1119.21	126.338
1122.1	72.5508
1125	41.4102
1127.89	110.695
1130.78	20.7607
1133.67	124.087
1136.57	73.1367
1139.46	185.204
1142.35	62.5098
1145.24	135.697
1148.14	110.106
1151.03	89.833
1153.92	181.766
1156.82	123.149
1159.71	14.6602
1162.6	77.4287
1165.49	68.5879
1168.39	49.2305
1171.28	60.3828
1174.17	58.4287
1177.06	95.6328
1179.96	105.08
1182.85	166.338
1185.74	144.577
1188.63	150.871
1191.53	128.964
1194.42	53.0039
1197.31	88.5693
1200.21	145.061
1203.1	113.805
1205.99	127.608
1208.88	67.8809
1211.78	1.03223
1214.67	81.2617
1217.56	148.772
1220.45	241.449
1223.35	250.139
1226.24	198.088
1229.13	69.0137
1232.03	43.2256
1234.92	121.401
1237.81	45.5889
1240.7	126.087
1243.6	83.5303
1246.49	11.6006
1249.38	97.9668
1252.28	50.7725
