Measurement: Raman, 785 nm, unoriented, Raman Data Processed
Mineral: Zalesiite
Rruff sample: R070455
Ideal chemistry: Cu^2+^_6_Ca(As^5+^O_4_)_2_(As^5+^O_3_OH)(OH)_6_3H_2_O
Locality: Zálesí, Javorník, Olomouc Region, Moravia (Mähren; Maehren), Czech Republic
Source: Michael Scott
Description: Matted aggregates of pale blue-green microscopic fibers
Raman shift (cm-1)	intensity
167.201	0
170.093	40.3326
172.986	20.0359
175.879	11.0771
178.772	39.6737
181.664	38.7876
184.557	39.151
187.45	73.2815
190.342	61.6178
193.235	41.5713
196.128	49.2053
199.02	54.0895
201.913	17.1157
204.806	1.47583
207.698	25.3257
210.591	0.722534
213.484	1.23389
216.377	3.40088
219.269	29.9509
222.162	24.6068
225.055	56.8806
227.947	57.7704
230.84	71.9768
233.733	61.8883
236.625	54.5635
239.518	67.6585
242.411	90.2098
245.304	57.913
248.196	47.41
251.089	91.803
253.982	36.9843
256.875	21.1514
259.767	44.1087
262.66	67.7026
265.553	65.1993
268.445	41.7642
271.338	26.2835
274.231	16.4835
277.123	18.8571
280.016	43.6232
282.909	19.9831
285.801	2.47839
288.694	12.8506
291.587	52.4012
294.48	18.4618
297.372	16.2736
300.265	1.08343
303.158	27.8962
306.05	28.7815
308.943	51.6766
311.836	49.8553
314.728	42.3187
317.621	66.0795
320.514	39.471
323.407	63.797
326.299	87.4039
329.192	70.5719
332.085	54.3815
334.977	50.02
337.87	47.8828
340.763	13.0072
343.655	39.0867
346.548	2.59436
349.441	9.55548
352.334	4.86597
355.226	13.3531
358.119	8.0788
361.012	4.09131
363.904	0.798645
366.797	13.0981
369.69	13.0889
372.582	25.1847
375.475	17.9714
378.368	17.3007
381.26	26.4858
384.153	17.3815
387.046	20.4368
389.939	24.9358
392.831	50.9908
395.724	46.6896
398.617	44.9504
401.509	52.8541
404.402	45.8637
407.295	29.7125
410.188	32.5152
413.08	31.7244
415.973	25.6893
418.866	10.2588
421.758	24.078
424.651	34.7878
427.544	30.1427
430.436	28.6726
433.329	45.2742
436.222	25.251
439.115	7.75873
442.007	6.72528
444.9	7.50439
447.793	2.09192
450.685	10.2063
453.578	24.7353
456.471	24.5392
459.363	54.0343
462.256	67.037
465.149	74.2703
468.041	118.845
470.934	119.383
473.827	145.3
476.72	161.375
479.612	156.264
482.505	131.562
485.398	116.899
488.29	106.148
491.183	37.842
494.076	45.0891
496.969	41.632
499.861	46.1958
502.754	18.3951
505.647	18.5858
508.539	34.4656
511.432	13.4388
514.325	11.2271
517.217	26.4776
520.11	31.0083
523.003	21.9786
525.896	40.1426
528.788	28.8903
531.681	52.212
534.574	24.779
537.466	31.5736
540.359	14.8733
543.252	11.6807
546.144	39.7933
549.037	20.3652
551.93	6.50226
554.823	23.7335
557.715	60.0453
560.608	8.51428
563.501	18.7469
566.393	28.7612
569.286	6.90973
572.179	19.3411
575.072	3.71716
577.964	1.99365
580.857	6.49475
583.75	13.3555
586.642	4.53046
589.535	5.80487
592.428	5.45282
595.32	12.3215
598.213	9.74359
601.106	3.8103
603.998	3.04529
606.891	10.4169
609.784	15.0562
612.677	9.6029
615.569	0.850891
618.462	7.93689
621.355	17.3923
624.247	11.082
627.14	27.4539
630.033	2.61633
632.925	1.16467
635.818	19.4169
638.711	1.23273
641.604	17.3873
644.496	9.32654
647.389	14.7041
650.282	21.3511
653.174	16.4627
656.067	31.4497
658.96	23.3248
661.852	28.0497
664.745	22.0785
667.638	31.1235
670.53	37.2958
673.423	35.7178
676.316	26.5568
679.209	27.5602
682.101	30.0266
684.994	21.4387
687.887	14.1312
690.779	9.90118
693.672	23.3886
696.565	22.1332
699.457	27.6249
702.35	33.3215
705.243	14.0599
708.136	25.0104
711.028	12.901
713.921	14.5653
716.814	30.0804
719.706	16.1614
722.599	9.78296
725.492	11.1483
728.385	9.61578
731.277	5.83746
734.17	12.9721
737.063	4.27838
739.955	22.0291
742.848	3.31494
745.741	3.06616
748.633	0.09613
751.526	6.21948
754.419	9.52167
757.312	16.1303
760.204	4.46893
763.097	0.123718
765.99	4.38446
768.882	7.32544
771.775	16.1725
774.668	3.42419
777.56	11.4854
780.453	30.5356
783.346	11.4363
786.239	28.4493
789.131	19.923
792.024	35.2673
794.917	15.7097
797.809	41.6816
800.702	26.5369
803.595	28.7483
806.487	19.2505
809.38	49.7534
812.273	39.5408
815.165	64.1708
818.058	78.4906
820.951	82.7986
823.844	113.856
826.736	148.267
829.629	126.317
832.522	140.939
835.414	129.851
838.307	139.859
841.2	132.21
844.092	132.196
846.985	130.281
849.878	167.125
852.771	200.554
855.663	175.233
858.556	229.646
861.449	259.208
864.341	279.89
867.234	241.548
870.127	210.23
873.019	169.633
875.912	136.166
878.805	101.51
881.698	68.3898
884.59	65.7169
887.483	62.8483
890.376	61.9205
893.268	33.6862
896.161	15.0547
899.054	24.8514
901.947	20.4876
904.839	27.4836
907.732	21.8152
910.625	1.5188
913.517	5.95694
916.41	6.54559
919.303	9.98837
922.195	1.72513
925.088	1.29706
927.981	28.8453
930.874	21.7588
933.766	11.6804
936.659	19.8769
939.552	17.057
942.444	18.1264
945.337	32.8106
948.23	31.1222
951.122	12.4011
954.015	22.3513
956.908	8.41769
959.801	23.8725
962.693	38.87
965.586	6.51712
968.479	21.0398
971.371	8.40952
974.264	20.9842
977.157	22.2692
980.049	21.9776
982.942	53.8094
985.835	20.8694
988.727	24.0027
991.62	27.682
994.513	9.01587
997.406	7.99701
1000.3	11.2968
1003.19	20.2877
1006.08	21.972
1008.98	20.5434
1011.87	2.79553
1014.76	20.294
1017.65	15.2959
1020.55	12.2445
1023.44	5.5831
1026.33	28.2695
1029.22	17.4497
1032.12	40.5505
1035.01	8.97415
1037.9	26.0381
1040.8	9.96051
1043.69	43.3295
1046.58	32.5809
1049.47	8.39593
1052.37	36.1728
1055.26	37.9879
1058.15	19.8281
1061.05	29.9381
1063.94	2.26373
1066.83	19.6076
1069.72	30.8483
1072.62	21.9566
1075.51	18.1407
1078.4	7.77518
1081.29	7.1264
1084.19	19.8909
1087.08	23.1404
1089.97	7.04254
1092.87	21.9938
1095.76	13.8708
1098.65	13.9316
1101.54	19.1638
1104.44	24.6133
1107.33	36.9737
1110.22	6.67401
1113.11	23.4075
1116.01	20.9967
1118.9	2.37399
1121.79	15.743
1124.68	12.1537
1127.58	17.8003
1130.47	23.5337
1133.36	16.6236
1136.26	15.6138
1139.15	16.6262
1142.04	4.90207
1144.93	21.1096
1147.83	5.54221
1150.72	15.15
1153.61	21.3225
1156.5	34.462
1159.4	0.265961
1162.29	9.60568
1165.18	20.7783
1168.08	22.3172
1170.97	20.7711
1173.86	1.36697
1176.75	9.20502
1179.65	11.2779
1182.54	11.0606
1185.43	28.1159
1188.32	14.0491
1191.22	13.4219
1194.11	17.2078
1197	27.1432
1199.89	29.8789
1202.79	11.9353
1205.68	20.0377
1208.57	28.7453
1211.46	5.6163
1214.36	34.8828
1217.25	20.3752
1220.14	0.26004
1223.04	21.4405
1225.93	1.80878
1228.82	18.1129
1231.71	21.0396
1234.61	8.69373
1237.5	2.57831
1240.39	13.4585
1243.29	32.4132
1246.18	1.6893
1249.07	3.11856
1251.96	6.59415
1254.86	15.3152
1257.75	0
