Measurement: Raman, 780 nm, unoriented, Raman Data Processed
Mineral: Zanazziite
Rruff sample: R100220
Ideal chemistry: Ca_2_Mg_5_Be_4_(PO_4_)_6_(OH)_4_6H_2_O
Locality: Jenipapo district, Itinga, Minas Gerais, Brazil
Source: Luiz Menezes
Description: Pale lilac rectangular blocky crystals on muscovite
Raman shift (cm-1)	intensity
228.491	0
231.383	7.52612
234.276	0.130493
237.169	7.87683
240.061	3.77808
242.954	3.151
245.847	5.67145
248.74	3.61707
251.632	5.09003
254.525	1.20892
257.418	6.37396
260.31	7.35144
263.203	7.13351
266.096	3.24381
268.988	4.80164
271.881	5.14929
274.774	0.559174
277.667	4.00382
280.559	5.21878
283.452	0.339478
286.345	0.691864
289.237	4.96915
292.13	2.04913
295.023	2.02548
297.916	0.075439
300.808	4.19336
303.701	4.00125
306.594	11.8829
309.486	8.61456
312.379	10.754
315.272	10.1154
318.164	10.5076
321.057	9.07016
323.95	6.85242
326.842	4.34821
329.735	5.05176
332.628	7.49768
335.521	2.11905
338.413	2.38025
341.306	7.27609
344.199	6.24097
347.091	5.11575
349.984	1.03845
352.877	2.38229
355.769	4.32501
358.662	0.733826
361.555	1.19406
364.447	0.648651
367.34	0.470154
370.233	5.51932
373.126	8.47186
376.018	10.9266
378.911	9.68448
381.804	5.60132
384.696	10.887
387.589	14.938
390.482	16.5571
393.375	15.0886
396.267	10.2104
399.16	7.38574
402.053	6.49026
404.945	5.63464
407.838	10.8626
410.731	9.98733
413.623	12.5732
416.516	9.85071
419.409	8.45874
422.301	6.63678
425.194	5.0322
428.087	2.58603
430.98	3.33237
433.872	7.49234
436.765	9.98831
439.658	12.287
442.55	14.8402
445.443	18.2477
448.336	13.3284
451.228	14.8573
454.121	13.2612
457.014	14.0731
459.907	12.6628
462.799	18.3965
465.692	15.6684
468.585	10.103
471.477	7.14828
474.37	0.136871
477.263	0.896149
480.156	0.924103
483.048	0.552765
485.941	0.670746
488.834	0.560974
491.726	0.623505
494.619	1.3458
497.512	1.7135
500.404	1.23206
503.297	7.35031
506.19	3.32797
509.082	7.59345
511.975	5.91199
514.868	2.45273
517.761	3.49643
520.653	1.55756
523.546	0.814758
526.439	1.06726
529.331	6.01382
532.224	0.207489
535.117	2.76102
538.01	8.01157
540.902	3.90521
543.795	1.32849
546.688	0.206879
549.58	2.82107
552.473	6.36725
555.366	8.09592
558.258	9.72073
561.151	11.214
564.044	11.805
566.936	10.3268
569.829	15.3126
572.722	10.6151
575.615	9.75534
578.507	6.57971
581.4	8.00116
584.293	4.24918
587.185	6.61249
590.078	4.2019
592.971	3.0502
595.863	4.48892
598.756	5.5784
601.649	6.54639
604.542	6.89288
607.434	7.13852
610.327	8.09403
613.22	6.09891
616.112	2.36612
619.005	4.78833
621.898	8.25864
624.79	7.73361
627.683	11.7894
630.576	13.0659
633.468	19.024
636.361	23.0903
639.254	23.7217
642.146	19.7707
645.039	15.6696
647.932	5.57715
650.825	5.741
653.717	4.96832
656.61	3.71234
659.503	2.74347
662.395	0.029297
665.288	4.28296
668.181	0.863647
671.073	2.12857
673.966	1.07254
676.859	0.242432
679.752	2.89218
682.644	0.230743
685.537	0.632324
688.43	3.17368
691.322	4.40073
694.215	3.22144
697.108	4.34354
700	4.75211
702.893	2.02274
705.786	6.74863
708.679	4.32477
711.571	5.5289
714.464	7.09286
717.357	5.15399
720.249	8.05298
723.142	6.95874
726.035	3.75153
728.928	6.79819
731.82	3.82333
734.713	6.09299
737.606	1.48721
740.498	4.09546
743.391	1.00778
746.284	1.21521
749.176	4.19855
752.069	2.6893
754.962	0.70871
757.855	2.16556
760.747	3.18967
763.64	2.30667
766.533	1.28082
769.425	4.07431
772.318	1.19891
775.211	5.10001
778.103	6.40927
780.996	4.74414
783.889	1.42813
786.782	0.71405
789.674	2.6781
792.567	3.0365
795.46	2.1503
798.352	6.20773
801.245	2.35617
804.138	1.88318
807.03	2.0224
809.923	4.37921
812.816	4.1441
815.708	4.58469
818.601	6.45252
821.494	7.3959
824.386	3.55188
827.279	5.46538
830.172	4.59523
833.065	3.95055
835.957	2.58868
838.85	5.86768
841.743	4.56589
844.635	2.11733
847.528	6.41414
850.421	4.66512
853.313	3.31357
856.206	1.64868
859.099	0.434921
861.992	2.65494
864.884	2.68834
867.777	2.60648
870.67	2.66382
873.562	2.40991
876.455	6.60228
879.348	2.3589
882.24	1.76604
885.133	3.72934
888.026	2.81642
890.919	5.23628
893.811	3.02968
896.704	1.43924
899.597	2.43944
902.489	0.010559
905.382	0.278214
908.275	0.188004
911.168	1.30066
914.06	0.590652
916.953	0.153412
919.846	4.20815
922.738	0.358948
925.631	0.146942
928.524	0.782547
931.416	0.621307
934.309	0.766449
937.202	1.87399
940.095	4.53577
942.987	6.21373
945.88	7.14551
948.773	11.5308
951.665	15.6094
954.558	19.1171
957.451	18.5865
960.343	22.2401
963.236	23.3211
966.129	25.4439
969.021	30.8355
971.914	38.5175
974.807	50.1617
977.699	67.528
980.592	87.5818
983.485	103.839
986.378	107.195
989.27	99.4482
992.163	89.751
995.056	70.3302
997.948	60.2156
1000.84	54.3863
1003.73	41.3506
1006.63	35.7063
1009.52	30.4864
1012.41	28.3541
1015.3	20.9737
1018.2	14.6979
1021.09	16.7278
1023.98	11.6675
1026.88	11.0507
1029.77	6.41472
1032.66	5.58884
1035.55	3.91283
1038.45	3.50949
1041.34	1.2404
1044.23	1.63357
1047.12	2.02785
1050.02	0.73822
1052.91	0.675507
1055.8	0.839615
1058.69	1.27255
1061.59	3.35899
1064.48	5.26474
1067.37	2.88037
1070.27	1.59398
1073.16	1.14557
1076.05	0.158875
1078.94	0.11441
1081.84	0.974518
1084.73	1.18501
1087.62	0.434265
1090.52	1.75114
1093.41	2.74597
1096.3	4.66896
1099.19	5.8611
1102.09	2.79961
1104.98	0.850952
1107.87	3.52858
1110.76	1.62996
1113.66	0.510162
1116.55	2.06216
1119.44	0.869324
1122.33	3.75705
1125.23	3.44679
1128.12	2.70441
1131.01	2.90744
1133.9	3.32388
1136.8	0.08844
1139.69	2.59558
1142.58	3.38854
1145.48	1.87093
1148.37	3.36708
1151.26	3.52295
1154.15	3.89507
1157.05	3.32678
1159.94	1.70912
1162.83	5.53882
1165.72	2.73225
1168.62	4.28624
1171.51	3.46158
1174.4	3.31291
1177.3	2.77481
1180.19	3.85927
1183.08	3.93407
1185.97	3.87614
1188.87	5.22531
1191.76	3.98004
1194.65	2.79472
1197.55	3.23087
1200.44	2.20332
1203.33	3.26465
1206.22	3.54922
1209.12	3.1611
1212.01	3.96814
1214.9	0.448959
1217.79	1.70242
1220.69	0.547653
1223.58	0.797058
1226.47	4.36281
1229.36	2.54631
1232.26	3.46642
1235.15	3.81073
1238.04	2.60333
1240.93	0.602905
1243.83	3.63168
1246.72	3.1292
1249.61	2.20988
1252.51	3.75427
1255.4	3.13287
1258.29	2.14825
1261.18	1.64543
1264.08	1.2514
1266.97	0.150345
1269.86	2.18004
1272.76	3.05864
1275.65	1.49808
1278.54	0.022873
1281.43	3.1256
1284.33	0.111557
