Measurement: Raman, 532 nm, unoriented, Raman Data Processed
Mineral: Zanazziite
Rruff sample: R100220
Ideal chemistry: Ca_2_Mg_5_Be_4_(PO_4_)_6_(OH)_4_6H_2_O
Locality: Jenipapo district, Itinga, Minas Gerais, Brazil
Source: Luiz Menezes
Description: Pale lilac rectangular blocky crystals on muscovite
Raman shift (cm-1)	intensity
212.529	0
215.421	5.33282
218.314	4.28979
221.207	10.2535
224.1	12.4077
226.992	1.36456
229.885	7.31451
232.778	4.31574
235.67	0.117249
238.563	0.734619
241.456	5.16693
244.348	8.70691
247.241	1.2005
250.134	5.22516
253.026	4.19843
255.919	5.95068
258.812	7.31183
261.705	7.62549
264.597	9.3045
267.49	4.72333
270.383	5.68097
273.276	4.50092
276.168	4.70367
279.061	6.28528
281.954	3.05035
284.846	0.257996
287.739	2.04968
290.632	1.49323
293.524	3.51978
296.417	3.79944
299.31	0.705566
302.202	1.95258
305.095	3.14111
307.988	8.0669
310.881	3.34522
313.773	5.0639
316.666	6.31409
319.559	7.60681
322.451	3.40472
325.344	0.088196
328.237	2.89203
331.13	7.143
334.022	6.46362
336.915	0.224976
339.808	5.79864
342.7	0.746399
345.593	5.47199
348.486	0.657349
351.378	9.69836
354.271	6.74536
357.164	0.163025
360.057	1.81696
362.949	5.74097
365.842	2.95691
368.735	4.6698
371.627	3.56903
374.52	9.99847
377.413	9.70734
380.305	8.77661
383.198	9.23199
386.091	10.4457
388.984	11.6753
391.876	15.078
394.769	12.6036
397.662	10.3362
400.554	8.68915
403.447	7.19226
406.34	8.48657
409.233	14.4368
412.125	16.1625
415.018	15.9953
417.911	12.3679
420.803	11.3006
423.696	9.70691
426.589	5.83649
429.481	7.38763
432.374	7.58997
435.267	3.52423
438.159	11.8273
441.052	21.785
443.945	9.51965
446.838	18.6799
449.73	15.9246
452.623	7.97815
455.516	8.76239
458.409	6.81506
461.301	5.64764
464.194	5.30652
467.087	9.92664
469.979	6.78058
472.872	6.08783
475.765	1.60144
478.657	1.00122
481.55	0.033569
484.443	1.19086
487.336	4.44867
490.228	2.06708
493.121	1.69305
496.014	0.047791
498.906	3.25336
501.799	4.62195
504.692	4.32428
507.584	4.19482
510.477	9.39532
513.37	5.88513
516.263	7.61523
519.155	3.63434
522.048	0.314697
524.941	4.94855
527.833	5.08661
530.726	4.69989
533.619	4.35614
536.511	8.42395
539.404	5.57581
542.297	13.72
545.19	9.9436
548.082	8.54627
550.975	12.0074
553.868	19.6404
556.76	23.72
559.653	30.3655
562.546	33.643
565.438	34.3712
568.331	33.7489
571.224	26.4993
574.117	26.1617
577.009	17.8172
579.902	12.344
582.795	11.6469
585.687	9.52924
588.58	9.37006
591.473	9.48273
594.365	2.73279
597.258	3.86969
600.151	4.33014
603.044	1.93793
605.936	3.79285
608.829	2.69196
611.722	4.05804
614.614	4.9281
617.507	4.21967
620.4	1.3985
623.293	2.40326
626.185	6.65552
629.078	7.95557
631.971	13.2172
634.863	18.5068
637.756	22.92
640.649	26.6085
643.542	21.7534
646.434	13.716
649.327	8.05585
652.22	2.71558
655.112	3.90753
658.005	5.20288
660.898	0.826904
663.79	5.25928
666.683	1.0788
669.576	2.23596
672.468	0.814697
675.361	2.8905
678.254	3.25708
681.147	1.99426
684.039	7.59784
686.932	3.34656
689.825	7.50067
692.717	3.17438
695.61	2.96503
698.503	10.0849
701.396	4.00732
704.288	8.53912
707.181	4.69202
710.074	7.35583
712.966	8.04919
715.859	6.83466
718.752	5.38641
721.644	6.76154
724.537	6.9632
727.43	6.57996
730.323	3.95764
733.215	4.08978
736.108	2.97809
739.001	4.51666
741.893	1.37341
744.786	3.34784
747.679	2.96246
750.572	1.3128
753.464	4.79645
756.357	3.34808
759.25	3.76636
762.142	7.94751
765.035	5.21863
767.928	6.26056
770.82	3.10968
773.713	7.51599
776.606	2.16119
779.499	11.3544
782.391	8.40472
785.284	10.2128
788.177	1.59955
791.069	2.26111
793.962	5.72107
796.855	2.55524
799.747	11.7049
802.64	6.1394
805.533	8.75751
808.426	5.2771
811.318	6.43347
814.211	4.40259
817.104	9.76672
819.996	11.9672
822.889	7.23132
825.782	8.30029
828.674	7.17908
831.567	8.20276
834.46	0.285767
837.353	4.69428
840.245	4.61328
843.138	5.02167
846.031	4.91852
848.923	3.96027
851.816	3.48456
854.709	6.75049
857.601	5.89496
860.494	3.58099
863.387	4.79224
866.28	4.49066
869.172	0.824768
872.065	6.00189
874.958	6.91638
877.851	5.22809
880.743	6.30914
883.636	7.46747
886.529	6.16785
889.421	3.83093
892.314	0.060913
895.207	5.49866
898.099	1.96222
900.992	4.86621
903.885	2.43481
906.778	2.53729
909.67	0.151855
912.563	3.59876
915.456	4.16382
918.348	2.38049
921.241	1.87647
924.134	1.4743
927.026	4.32544
929.919	5.43268
932.812	1.27252
935.705	1.87817
938.597	0.325684
941.49	0.501038
944.383	3.14526
947.275	7.28095
950.168	9.46301
953.061	9.8775
955.953	18.5307
958.846	18.8959
961.739	22.6498
964.631	27.9258
967.524	31.9174
970.417	38.6139
973.31	52.8937
976.202	66.0622
979.095	87.6559
981.988	117.585
984.88	144.868
987.773	165.038
990.666	151.239
993.559	137.333
996.451	119.992
999.344	103.889
1002.24	91.5109
1005.13	72.2673
1008.02	56.106
1010.91	53.8326
1013.81	42.7651
1016.7	34.666
1019.59	27.1817
1022.49	23.6389
1025.38	18.3045
1028.27	12.2601
1031.16	12.1167
1034.06	10.1265
1036.95	9.4259
1039.84	0.67804
1042.73	3.55035
1045.63	3.49133
1048.52	3.72656
1051.41	1.6319
1054.31	0.252563
1057.2	2.49231
1060.09	1.0003
1062.98	3.49255
1065.88	2.26227
1068.77	0.969177
1071.66	0.860474
1074.55	1.59924
1077.45	0.52948
1080.34	0.307312
1083.23	5.11627
1086.12	6.19098
1089.02	3.57062
1091.91	0.937073
1094.8	4.71216
1097.7	8.52057
1100.59	6.5846
1103.48	9.31909
1106.37	4.51483
1109.27	12.8299
1112.16	16.0356
1115.05	3.87622
1117.94	4.12634
1120.84	6.68207
1123.73	6.2265
1126.62	7.21655
1129.52	5.927
1132.41	5.28027
1135.3	7.89429
1138.19	1.8631
1141.09	3.43152
1143.98	0.869507
1146.87	5.47498
1149.77	1.05109
1152.66	5.1629
1155.55	3.18689
1158.44	4.67767
1161.34	7.19647
1164.23	5.69415
1167.12	2.35315
1170.01	1.82684
1172.91	4.58636
1175.8	9.31207
1178.69	1.4231
1181.58	3.59326
1184.48	9.23126
1187.37	2.6059
1190.26	7.17297
1193.15	6.35346
1196.05	6.39288
1198.94	4.46802
1201.83	2.98969
1204.73	5.974
1207.62	3.5636
1210.51	0.068848
1213.4	6.49536
1216.3	5.61371
1219.19	9.64179
1222.08	3.19074
1224.97	4.46661
1227.87	7.64038
1230.76	0.741638
1233.65	4.75854
1236.55	2.46924
1239.44	1.76117
1242.33	1.396
1245.22	1.77112
1248.12	6.46808
1251.01	8.31097
1253.9	5.95038
1256.8	3.59607
1259.69	7.29559
1262.58	9.46368
1265.47	5.32068
1268.37	6.94098
1271.26	5.88367
1274.15	6.67383
1277.04	5.02161
1279.94	4.65283
1282.83	10.1088
1285.72	4.28461
1288.61	7.49518
1291.51	5.49982
1294.4	8.58563
1297.29	6.5733
1300.18	1.30664
