Measurement: Raman, 780 nm, unoriented, Raman Data Processed
Mineral: Zanazziite
Rruff sample: R050578
Ideal chemistry: Ca_2_Mg_5_Be_4_(PO_4_)_6_(OH)_4_6H_2_O
Locality: Lavra da Ilha pegmatite, Taquaral, Minas Gerais, Brazil
Source: University of Arizona Mineral Museum
Description: Mass of pale green acicular crystals associated with eosphorite
Measured chemistry: Ca_2.00_Be_4.00_(Mg_2.48_Fe^2+^_1.80_Mn_0.33_Al_0.26_[box]_0.13_)_Σ=5_(P_1.00_O_4_)_6_(OH)_4_·6H_2_O ; Be not measured but estimated by difference and charge balance
Raman shift (cm-1)	intensity
149.919	0
152.812	0.155518
155.705	20.4641
158.597	14.053
161.49	23.0149
164.383	47.79
167.276	45.5654
170.168	75.7532
173.061	61.1897
175.954	44.8132
178.846	47.7126
181.739	28.6572
184.632	39.2827
187.524	15.0793
190.417	30.7844
193.31	20.0029
196.203	12.7212
199.095	26.0359
201.988	28.4263
204.881	25.543
207.773	39.1731
210.666	41.2847
213.559	52.2427
216.451	43.5427
219.344	26.7886
222.237	37.1956
225.13	41.5281
228.022	36.3625
230.915	7.79394
233.808	10.4678
236.7	13.6699
239.593	18.8237
242.486	21.4448
245.378	13.2009
248.271	30.731
251.164	27.1018
254.056	31.166
256.949	19.8879
259.842	18.1252
262.735	20.394
265.627	12.8645
268.52	20.4983
271.413	15.9932
274.305	6.38867
277.198	4.39478
280.091	6.26953
282.983	19.1233
285.876	3.25488
288.769	6.62036
291.662	4.82251
294.554	5.41406
297.447	10.4336
300.34	10.6902
303.232	2.44482
306.125	21.9282
309.018	10.6318
311.911	12.5266
314.803	9.86182
317.696	10.9988
320.589	9.5835
323.481	18.2488
326.374	9.55615
329.267	5.94629
332.159	4.08643
335.052	14.4832
337.945	13.3704
340.837	13.8596
343.73	2.38354
346.623	0.228271
349.516	6.98022
352.408	0.450195
355.301	23.969
358.194	23.0337
361.086	33.4622
363.979	21.1977
366.872	29.0322
369.764	44.114
372.657	63.5395
375.55	69.0706
378.442	75.7444
381.335	69.9006
384.228	59.3484
387.121	81.3857
390.013	70.426
392.906	87.0012
395.799	101.04
398.691	73.2788
401.584	71.3269
404.477	87.5715
407.37	76.9863
410.262	64.0562
413.155	57.3425
416.048	44.5063
418.94	25.0698
421.833	13.7561
424.726	20.1831
427.618	22.304
430.511	26.5662
433.404	14.811
436.296	36.7422
439.189	32.7783
442.082	7.80005
444.975	8.92285
447.867	10.3938
450.76	11.1877
453.653	0.6521
456.545	9.01343
459.438	5.63818
462.331	8.06799
465.224	5.45691
468.116	0.391724
471.009	10.2854
473.902	10.4283
476.794	9.66565
479.687	20.9122
482.58	9.89795
485.472	11.377
488.365	14.9569
491.258	14.7815
494.151	2.92297
497.043	12.092
499.936	0.601074
502.829	14.2317
505.721	4.77283
508.614	11.7551
511.507	8.32727
514.399	0.627808
517.292	2.00842
520.185	7.21875
523.077	12.0961
525.97	6.70398
528.863	5.08789
531.756	4.11597
534.648	6.00781
537.541	11.5409
540.434	4.44873
543.326	6.01758
546.219	16.7992
549.112	15.3093
552.004	25.6366
554.897	32.5121
557.79	43.7716
560.683	49.9642
563.575	40.6786
566.468	48.0707
569.361	54.3057
572.253	52.8715
575.146	53.9465
578.039	59.2572
580.931	48.608
583.824	56.5861
586.717	40.896
589.61	54.0236
592.502	42.5099
595.395	37.7434
598.288	34.8215
601.18	36.3287
604.073	49.8197
606.966	34.6752
609.858	22.4037
612.751	33.1173
615.644	29.8401
618.537	30.246
621.429	29.2436
624.322	23.6923
627.215	46.7699
630.107	43.8301
633	40.0898
635.893	45.4889
638.785	39.6387
641.678	24.585
644.571	22.8091
647.463	22.0978
650.356	10.8155
653.249	4.2583
656.141	1.89026
659.034	2.26318
661.927	14.5399
664.82	11.73
667.712	1.69812
670.605	16.9973
673.498	5.48645
676.39	6.23474
679.283	20.5671
682.176	7.44299
685.068	11.4308
687.961	7.45508
690.854	13.0593
693.747	17.042
696.639	9.25134
699.532	2.30908
702.425	4.92993
705.317	5.13733
708.21	7.00549
711.103	6.73706
713.995	16.9944
716.888	9.06323
719.781	4.53613
722.674	4.44788
725.566	14.3387
728.459	13.8153
731.352	14.7185
734.244	6.98645
737.137	2.56787
740.03	8.07678
742.923	2.4115
745.815	9.05383
748.708	2.52002
751.601	18.8937
754.493	1.7854
757.386	5.04358
760.279	11.7376
763.171	12.4665
766.064	9.90515
768.957	8.88391
771.85	18.329
774.742	6.31043
777.635	3.85986
780.528	28.9708
783.42	11.2212
786.313	14.0781
789.206	11.1459
792.098	21.5273
794.991	9.85266
797.884	13.7147
800.776	1.77625
803.669	0.055786
806.562	17.6794
809.455	4.48193
812.347	12.6613
815.24	1.88977
818.133	3.32581
821.025	11.4123
823.918	5.41785
826.811	1.04248
829.703	11.7661
832.596	8.61401
835.489	11.4187
838.381	7.60181
841.274	11.3293
844.167	12.0219
847.06	14.1867
849.952	13.9331
852.845	16.488
855.738	21.2752
858.63	20.2398
861.523	21.306
864.416	21.5414
867.308	19.0979
870.201	11.86
873.094	14.5732
875.987	5.578
878.879	0.504639
881.772	3.74609
884.665	7.20105
887.557	16.1014
890.45	8.30749
893.343	9.5304
896.236	0.074585
899.128	10.8807
902.021	3.51196
904.914	1.38965
907.806	7.34729
910.699	0.648315
913.592	10.4803
916.484	6.54944
919.377	8.30933
922.27	13.6545
925.163	10.0509
928.055	17.2293
930.948	10.6887
933.841	16.0807
936.733	13.8687
939.626	29.4202
942.519	32.3573
945.411	33.085
948.304	38.953
951.197	45.9548
954.09	63.6755
956.982	76.8558
959.875	91.5231
962.768	114.313
965.66	131.558
968.553	164.674
971.446	221.845
974.338	242.407
977.231	254.121
980.124	280.474
983.016	286.192
985.909	253.565
988.802	227.717
991.694	193.103
994.587	176.157
997.48	144.665
1000.37	125.658
1003.26	108.368
1006.16	95.3859
1009.05	72.157
1011.94	67.1636
1014.84	60.4769
1017.73	60.9325
1020.62	50.1101
1023.51	41.8823
1026.41	34.2816
1029.3	28.4954
1032.19	21.2731
1035.09	23.5646
1037.98	12.7391
1040.87	17.2225
1043.76	13.2725
1046.66	10.6829
1049.55	9.00671
1052.44	0.874512
1055.33	1.96252
1058.23	8.4198
1061.12	1.1261
1064.01	2.94958
1066.9	12.7841
1069.8	20.168
1072.69	1.57629
1075.58	1.69495
1078.47	1.34143
1081.37	13.8838
1084.26	10.9459
1087.15	8.21106
1090.05	0.383301
1092.94	5.70471
1095.83	0.691284
1098.72	2.302
1101.62	1.85352
1104.51	6.93848
1107.4	5.08069
1110.3	19.8536
1113.19	0.281128
1116.08	0.87854
1118.97	1.96533
1121.87	7.55322
1124.76	19.1376
1127.65	2.40149
1130.54	18.3726
1133.44	0.904175
1136.33	1.20056
1139.22	7.44775
1142.12	14.0315
1145.01	9.19251
1147.9	17.8147
1150.79	13.3604
1153.69	17.9745
1156.58	17.955
1159.47	8.32263
1162.36	22.12
1165.26	6.34448
1168.15	16.0911
1171.04	23.3777
1173.93	15.9412
1176.83	8.6615
1179.72	18.3735
1182.61	21.8038
1185.51	7.56763
1188.4	18.7374
1191.29	15.9264
1194.18	3.21143
1197.08	7.12476
1199.97	13.5367
1202.86	14.0958
1205.75	22.6106
1208.65	3.87109
1211.54	11.0475
1214.43	10.2887
1217.33	5.2583
1220.22	12.9495
1223.11	4.54138
1226	12.9592
1228.9	2.88733
1231.79	0.202637
1234.68	20.2148
1237.57	2.17285
1240.47	16.0916
1243.36	0.346924
1246.25	20.8546
1249.14	4.91968
1252.04	12.285
1254.93	7.9408
1257.82	1.49744
1260.71	7.07629
1263.61	9.4679
1266.5	8.50037
1269.39	18.9941
1272.29	13.181
1275.18	20.1523
1278.07	14.5861
1280.96	2.25757
1283.86	12.485
