Measurement: Raman, 780 nm, unoriented, Raman Data Processed
Mineral: Zaratite
Rruff sample: R050268
Ideal chemistry: Ni^2+^_3_C^4+^O_3_(OH)_4_4H_2_O
Locality: Lord Brassy mine, Tasmania, Australia
Source: Marcus Origlieri
Description: Green amorphous crust, intimately associated with nepouite
Measured chemistry: Ni_3.00_(CO_3_)(OH)_4_Â·4H_2_O
Raman shift (cm-1)	intensity
163.062	0
165.955	0.92476
168.847	0.890959
171.74	1.1634
174.633	2.95512
177.525	0.50898
180.418	2.13226
183.311	2.73636
186.203	1.84336
189.096	1.25482
191.989	1.67952
194.882	2.03595
197.774	3.40769
200.667	2.59078
203.56	0.143245
206.452	1.70912
209.345	0.892381
212.238	1.82054
215.131	2.51137
218.023	1.20068
220.916	1.8115
223.809	1.51091
226.701	1.42397
229.594	1.62389
232.487	2.39024
235.379	1.52683
238.272	1.36259
241.165	1.63933
244.058	1.13618
246.95	1.65739
249.843	1.90305
252.736	1.4099
255.628	0.435114
258.521	1.90418
261.414	1.18775
264.306	0.48009
267.199	1.58578
270.092	1.95797
272.985	1.96445
275.877	0.245584
278.77	0.474208
281.663	1.22865
284.555	0.103978
287.448	0.914079
290.341	1.94383
293.233	0.991749
296.126	0.691055
299.019	2.51164
301.911	0.221372
304.804	1.88813
307.697	1.21312
310.59	1.55423
313.482	0.068929
316.375	1.25141
319.268	1.03459
322.16	1.01188
325.053	0.192389
327.946	0.249449
330.839	0.201843
333.731	0.638499
336.624	0.693389
339.517	0.501793
342.409	1.2917
345.302	1.06973
348.195	0.108238
351.087	0.476579
353.98	0.06711
356.873	1.0003
359.765	0.18161
362.658	0.894267
365.551	0.020367
368.443	0.707722
371.336	1.30552
374.229	1.31865
377.122	0.511088
380.014	0.466375
382.907	1.21385
385.8	0.57766
388.692	1.07897
391.585	1.51722
394.478	0.818111
397.37	1.11951
400.263	1.09644
403.156	0.143039
406.049	0.323652
408.941	1.36936
411.834	1.80332
414.727	0.809452
417.619	0.945411
420.512	1.40998
423.405	0.096481
426.298	2.06152
429.19	1.64853
432.083	2.05621
434.976	2.16972
437.868	3.27939
440.761	2.3835
443.654	0.937673
446.546	2.50405
449.439	2.50582
452.332	3.05736
455.224	0.879023
458.117	1.18653
461.01	3.49196
463.903	2.01165
466.795	1.50296
469.688	1.56647
472.581	0.824425
475.473	1.87426
478.366	0.325335
481.259	0.101186
484.152	0.167094
487.044	1.43649
489.937	0.07293
492.83	1.22059
495.722	0.095193
498.615	0.744066
501.508	0.189306
504.4	1.71196
507.293	0.406963
510.186	1.78085
513.079	1.57802
515.971	0.204247
518.864	0.370591
521.757	1.16007
524.649	1.65126
527.542	1.85434
530.435	1.33821
533.327	0.937558
536.22	1.54692
539.113	0.587718
542.006	0.064554
544.898	0.897086
547.791	0.225041
550.684	0.947866
553.576	1.22295
556.469	1.30207
559.362	0.816432
562.255	1.34112
565.147	1.00897
568.04	1.64678
570.933	1.40593
573.825	1.44831
576.718	1.60303
579.611	0.999986
582.503	0.237196
585.396	1.72373
588.289	0.547113
591.181	1.35537
594.074	1.03715
596.967	2.41665
599.86	0.697268
602.752	0.193584
605.645	0.655983
608.538	1.62558
611.43	0.612578
614.323	1.21141
617.216	0.176052
620.108	0.398652
623.001	0.059082
625.894	0.653388
628.787	0.068333
631.679	1.28595
634.572	0.464599
637.465	2.29002
640.357	0.025117
643.25	0.87673
646.143	1.30694
649.035	0.039016
651.928	1.08665
654.821	0.261648
657.713	0.331306
660.606	0.758772
663.499	1.38263
666.392	1.32794
669.284	0.591679
672.177	0.399884
675.07	1.40491
677.962	0.575732
680.855	1.64265
683.748	0.276351
686.64	0.708697
689.533	0.125637
692.426	0.145617
695.319	1.11763
698.211	1.41763
701.104	0.105241
703.997	1.09387
706.889	0.579958
709.782	0.735877
712.675	1.71356
715.567	1.08849
718.46	1.09947
721.353	0.209282
724.246	0.676386
727.138	0.779469
730.031	0.025603
732.924	0.781402
735.816	1.44184
738.709	0.316047
741.602	0.020947
744.495	1.19546
747.387	0.305048
750.28	0.582613
753.173	0.245518
756.065	0.563755
758.958	0.879759
761.851	0.671968
764.743	1.0045
767.636	1.49597
770.529	0.073309
773.422	0.86436
776.314	1.22616
779.207	0.302369
782.1	0.00697
784.992	0.2276
787.885	0.683664
790.778	2.43843
793.67	1.07548
796.563	0.98644
799.456	1.29847
802.348	1.79015
805.241	0.854206
808.134	2.92957
811.027	2.26023
813.919	0.498388
816.812	1.16895
819.705	1.81946
822.597	2.45844
825.49	1.82415
828.383	1.44721
831.275	0.306687
834.168	1.65266
837.061	1.44168
839.954	0.664479
842.846	1.11863
845.739	0.213141
848.632	1.27354
851.524	0.025696
854.417	1.15441
857.31	0.497061
860.202	0.210777
863.095	0.538568
865.988	0.178688
868.881	0.359418
871.773	1.68038
874.666	0.794592
877.559	0.364579
880.451	0.659025
883.344	0.060487
886.237	0.312706
889.13	0.317707
892.022	0.813438
894.915	1.02044
897.808	0.000553
900.7	0.532323
903.593	1.25468
906.486	1.23464
909.378	0.114769
912.271	0.031694
915.164	0.279344
918.057	1.42357
920.949	0.75469
923.842	0.917309
926.735	0.030219
929.627	0.706151
932.52	0.770751
935.413	0.596565
938.305	0.072066
941.198	0.48309
944.091	0.102725
946.984	0.752872
949.876	0.442073
952.769	0.789915
955.662	0.672292
958.554	1.04304
961.447	2.06337
964.34	3.69978
967.232	4.68192
970.125	5.06297
973.018	5.92347
975.91	7.62139
978.803	5.87373
981.696	6.24153
984.589	4.22099
987.481	3.08338
990.374	1.82454
993.267	1.97714
996.159	1.65189
999.052	1.23852
1001.95	0.149997
1004.84	0.678489
1007.73	0.000107
1010.62	0.011502
1013.52	0.793714
1016.41	0.675537
1019.3	0.256278
1022.19	0.050511
1025.09	0.888241
1027.98	0.120386
1030.87	1.37088
1033.77	0.983267
1036.66	0.761005
1039.55	1.57125
1042.44	2.0683
1045.34	1.00239
1048.23	1.44071
1051.12	1.69765
1054.01	3.28809
1056.91	4.54531
1059.8	5.15103
1062.69	5.36401
1065.58	7.32444
1068.48	7.3622
1071.37	8.62423
1074.26	7.91803
1077.15	6.01301
1080.05	7.83392
1082.94	6.63134
1085.83	6.18429
1088.73	4.27291
1091.62	3.53335
1094.51	3.18937
1097.4	2.75704
1100.3	2.94749
1103.19	2.7393
1106.08	0.843273
1108.97	1.10072
1111.87	0.101064
1114.76	0.910405
1117.65	0.130272
1120.55	0.05873
1123.44	0.396748
1126.33	0.607818
1129.22	0.829451
1132.12	0.851101
1135.01	0.3467
1137.9	0.670469
1140.79	0.161891
1143.69	1.08171
1146.58	1.00248
1149.47	1.40617
1152.37	0.664347
1155.26	0.637017
1158.15	0.643799
1161.04	0.932933
1163.94	0.971913
1166.83	1.63088
1169.72	1.47185
1172.61	0.17326
1175.51	0.226093
1178.4	0.496494
1181.29	0.044718
1184.18	0.260333
1187.08	0.900268
1189.97	0.735409
1192.86	1.70785
1195.76	1.08458
1198.65	1.92776
1201.54	1.40518
1204.43	0.597369
1207.33	0.034226
1210.22	1.61204
1213.11	0.827362
1216.01	2.00166
1218.9	0.335007
1221.79	1.72542
1224.68	0.625673
1227.58	0.39609
1230.47	1.12871
1233.36	0.032722
1236.25	1.88508
1239.15	1.21261
1242.04	0.082057
1244.93	2.68868
1247.82	0.174703
1250.72	2.4342
1253.61	1.9672
1256.5	1.9587
1259.39	1.0571
1262.29	1.01158
1265.18	0.680513
1268.07	2.03108
1270.97	1.74855
1273.86	2.08658
1276.75	0.466087
1279.64	1.41102
1282.54	0.300843
1285.43	0.006075
