Measurement: Raman, 532 nm, unoriented, Raman Data Processed
Mineral: Zavaritskite
Rruff sample: R070488
Ideal chemistry: Bi^3+^OF
Locality: Moldava, Dubí, Krusné Hory Mts (Erzgebirge), Ústí Region, Bohemia (Böhmen; Boehmen), Czech Republic
Source: Michael Scott
Description: Dark gray submetallic massive
Raman shift (cm-1)	intensity
156.423	0
159.316	62.3483
162.209	0.880005
165.101	21.1569
167.994	9.80176
170.887	26.4873
173.779	38.5427
176.672	41.007
179.565	22.744
182.458	49.0223
185.35	28.1092
188.243	39.7483
191.136	35.3037
194.028	51.2144
196.921	59.3359
199.814	54.6096
202.706	60.1919
205.599	71.9557
208.492	75.89
211.385	48.1962
214.277	41.4817
217.17	59.1333
220.063	58.2152
222.955	77.1089
225.848	26.078
228.741	44.5917
231.633	2.44592
234.526	54.5579
237.419	76.6572
240.311	29.2582
243.204	45.8792
246.097	24.3649
248.99	29.9523
251.882	52.1791
254.775	60.7659
257.668	76.2751
260.56	20.2564
263.453	22.8176
266.346	34.6801
269.238	49.959
272.131	29.3771
275.024	27.3624
277.917	37.9823
280.809	41.3442
283.702	18.8317
286.595	20.0218
289.487	10.1435
292.38	19.8548
295.273	34.7953
298.166	17.5117
301.058	25.837
303.951	36.4961
306.844	62.5389
309.736	28.8446
312.629	73.4644
315.522	38.7437
318.414	67.475
321.307	75.7447
324.2	43.1192
327.092	35.6844
329.985	19.9042
332.878	8.00806
335.771	8.6048
338.663	20.4857
341.556	30.5596
344.449	35.6077
347.341	4.32636
350.234	28.7537
353.127	4.67523
356.019	39.7854
358.912	5.01898
361.805	34.6158
364.698	6.35516
367.59	12.2835
370.483	6.99835
373.376	21.3071
376.268	6.15985
379.161	25.5841
382.054	14.314
384.947	26.4728
387.839	22.3568
390.732	22.4816
393.625	36.342
396.517	10.3831
399.41	23.4173
402.303	26.8456
405.195	39.4277
408.088	13.6928
410.981	24.1557
413.873	26.8453
416.766	28.1644
419.659	9.58624
422.552	28.4252
425.444	19.8851
428.337	19.5547
431.23	49.6263
434.122	11.2713
437.015	19.46
439.908	70.7904
442.8	41.8821
445.693	34.012
448.586	26.4451
451.479	73.4039
454.371	74.871
457.264	89.192
460.157	90.0606
463.049	114.933
465.942	107.632
468.835	104.323
471.728	62.63
474.62	30.3119
477.513	25.1863
480.406	11.1366
483.298	43.245
486.191	24.007
489.084	24.0241
491.976	28.2172
494.869	30.8584
497.762	31.3498
500.654	26.3057
503.547	11.4931
506.44	13.5944
509.333	15.493
512.225	3.90802
515.118	4.48621
518.011	7.08374
520.903	10.7488
523.796	8.71509
526.689	34.4902
529.582	17.2615
532.474	20.4517
535.367	17.4479
538.26	17.0753
541.152	5.01697
544.045	18.4418
546.938	30.3152
549.83	9.95233
552.723	16.6389
555.616	14.4258
558.509	20.9384
561.401	5.6983
564.294	18.7585
567.187	36.201
570.079	26.6769
572.972	16.4912
575.865	32.7022
578.757	22.118
581.65	15.6865
584.543	8.04907
587.436	25.9402
590.328	8.68164
593.221	6.03064
596.114	9.84924
599.006	11.7723
601.899	15.3735
604.792	7.09576
607.684	25.9963
610.577	34.3279
613.47	24.8027
616.362	17.1392
619.255	17.3368
622.148	28.6968
625.041	11.3262
627.933	11.5461
630.826	21.226
633.719	24.997
636.611	14.6109
639.504	25.0977
642.397	13.8979
645.29	20.061
648.182	6.17889
651.075	6.97571
653.968	18.8648
656.86	27.2569
659.753	14.5714
662.646	13.8705
665.538	35.7734
668.431	29.6815
671.324	10.6454
674.217	9.87561
677.109	11.8187
680.002	9.30652
682.895	14.626
685.787	26.3231
688.68	17.5489
691.573	9.22113
694.466	30.6871
697.358	13.3551
700.251	41.7805
703.144	1.63623
706.036	27.6797
708.929	23.3047
711.822	6.63422
714.714	39.7828
717.607	25.4174
720.5	18.5277
723.393	26.1576
726.285	1.4978
729.178	0.395264
732.071	33.2953
734.963	18.8555
737.856	17.3809
740.749	35.105
743.641	34.3806
746.534	29.4945
749.427	43.2346
752.319	30.9542
755.212	23.8883
758.105	47.3081
760.998	30.5316
763.89	40.8081
766.783	11.9334
769.676	58.3856
772.568	24.5713
775.461	17.9258
778.354	19.4746
781.246	16.535
784.139	15.4816
787.032	13.8423
789.925	13.8214
792.817	8.12085
795.71	2.5921
798.603	1.9989
801.495	23.0318
804.388	13.0428
807.281	3.78418
810.173	5.30652
813.066	23.6058
815.959	4.28064
818.852	4.72076
821.744	11.9876
824.637	56.245
827.53	9.19519
830.422	17.1042
833.315	20.8276
836.208	30.1697
839.101	7.66199
841.993	25.9894
844.886	49.157
847.779	43.5335
850.671	45.7971
853.564	58.3742
856.457	63.9731
859.349	108.252
862.242	123.417
865.135	186.119
868.028	217.806
870.92	224.149
873.813	195.885
876.706	109.651
879.598	87.0741
882.491	49.4374
885.384	43.4128
888.276	23.982
891.169	19.4041
894.062	21.8981
896.955	16.2867
899.847	18.8873
902.74	15.9607
905.633	25.6448
908.525	14.2253
911.418	8.46783
914.311	4.68927
917.203	26.4112
920.096	15.2573
922.989	8.99725
925.881	2.64331
928.774	4.73828
931.667	6.13336
934.56	17.9161
937.452	16.1863
940.345	10.263
943.238	42.9434
946.13	0.935425
949.023	10.3446
951.916	9.68585
954.808	19.5621
957.701	6.60162
960.594	30.6639
963.487	23.1416
966.379	20.7572
969.272	30.3312
972.165	18.9784
975.057	35.9887
977.95	30.0493
980.843	18.0264
983.736	29.8845
986.628	26.1754
989.521	20.6635
992.414	15.0851
995.306	22.649
998.199	22.6034
1001.09	42.802
1003.98	11.8796
1006.88	13.3594
1009.77	34.2485
1012.66	2.46381
1015.55	22.0848
1018.45	1.88123
1021.34	1.12964
1024.23	29.1632
1027.13	28.5518
1030.02	25.5137
1032.91	28.8791
1035.8	5.27789
1038.7	20.7226
1041.59	4.85077
1044.48	18.6627
1047.38	31.913
1050.27	37.0726
1053.16	16.3798
1056.05	10.7592
1058.95	27.1904
1061.84	20.6631
1064.73	22.2321
1067.62	30.5657
1070.52	25.8051
1073.41	21.007
1076.3	46.135
1079.19	35.3214
1082.09	11.996
1084.98	24.6923
1087.87	45.0516
1090.77	37.2022
1093.66	28.4597
1096.55	22.9763
1099.44	12.3074
1102.34	31.4679
1105.23	10.0211
1108.12	3.50055
1111.01	42.1717
1113.91	24.6959
1116.8	7.57855
1119.69	29.682
1122.59	24.868
1125.48	3.67688
1128.37	26.7161
1131.26	22.9311
1134.16	36.4351
1137.05	28.0132
1139.94	19.5945
1142.83	11.2637
1145.73	38.1663
1148.62	17.5912
1151.51	20.2972
1154.4	26.1031
1157.3	28.1257
1160.19	27.6173
1163.08	9.60834
1165.98	31.4808
1168.87	23.1983
1171.76	12.6462
1174.65	0.549011
1177.55	21.1541
1180.44	2.83636
1183.33	17.877
1186.22	9.56244
1189.12	15.3097
1192.01	22.5725
1194.9	19.8457
1197.8	18.1209
1200.69	12.611
1203.58	5.99664
1206.47	1.85596
1209.37	9.01654
1212.26	29.6409
1215.15	20.9252
1218.04	32.9868
1220.94	6.50909
1223.83	23.2393
1226.72	26.9197
1229.62	27.2834
1232.51	34.3767
1235.4	15.9271
1238.29	21.3284
1241.19	25.789
1244.08	30.1023
1246.97	23.8232
1249.86	15.1352
1252.76	43.0335
1255.65	24.5061
1258.54	33.9476
1261.43	37.8978
1264.33	31.9264
1267.22	7.54065
