Measurement: Raman, 785 nm, unoriented, Raman Data Processed
Mineral: Zavaritskite
Rruff sample: R070488
Ideal chemistry: Bi^3+^OF
Locality: Moldava, Dubí, Krusné Hory Mts (Erzgebirge), Ústí Region, Bohemia (Böhmen; Boehmen), Czech Republic
Source: Michael Scott
Description: Dark gray submetallic massive
Raman shift (cm-1)	intensity
174.915	0
177.807	42.5061
180.7	50.9744
183.593	57.6406
186.485	12.6299
189.378	53.2131
192.271	74.2693
195.163	82.0879
198.056	114.594
200.949	95.6006
203.842	76.0999
206.734	71.0601
209.627	69.6196
212.52	60.4788
215.412	45.3984
218.305	91.5523
221.198	59.4912
224.09	88.4268
226.983	72.5569
229.876	57.2378
232.769	32.9001
235.661	86.9307
238.554	79.8665
241.447	77.1533
244.339	41.731
247.232	41.0884
250.125	31.7222
253.018	55.2625
255.91	43.6958
258.803	56.8865
261.696	45.7661
264.588	31.3704
267.481	15.6956
270.374	25.6748
273.266	22.916
276.159	2.63159
279.052	45.6887
281.945	48.4085
284.837	45.6614
287.73	9.27002
290.623	46.8428
293.515	49.9412
296.408	52.2151
299.301	76.2632
302.193	43.8328
305.086	60.929
307.979	138.903
310.872	93.7024
313.764	102.992
316.657	102.496
319.55	99.6699
322.442	90.6514
325.335	71.6023
328.228	84.9893
331.12	34.074
334.013	17.1487
336.906	15.6785
339.798	11.3115
342.691	20.863
345.584	44.6562
348.477	16.3745
351.369	22.4961
354.262	10.7485
357.155	6.54492
360.047	20.9802
362.94	28.1352
365.833	11.8389
368.726	18.5713
371.618	22.0747
374.511	48.7333
377.404	24.4751
380.296	15.4889
383.189	11.7092
386.082	63.1716
388.974	56.9819
391.867	41.2183
394.76	46.6378
397.652	44.0057
400.545	21.8546
403.438	3.98413
406.331	41.6547
409.223	29.8072
412.116	41.0289
415.009	36.14
417.901	56.3005
420.794	41.8373
423.687	29.6356
426.579	24.3814
429.472	0.074951
432.365	5.32373
435.258	49.3267
438.15	44.9264
441.043	31.319
443.936	56.8789
446.828	39.0305
449.721	45.6191
452.614	56.5028
455.507	90.2728
458.399	80.3781
461.292	118.5
464.185	104.438
467.077	100.708
469.97	90.8075
472.863	88.3221
475.755	54.4094
478.648	14.8939
481.541	26.166
484.433	35.7347
487.326	48.6351
490.219	37.325
493.112	21.9464
496.004	13.2843
498.897	5.29602
501.79	17.6129
504.682	3.78455
507.575	7.47534
510.468	13.8187
513.361	8.03723
516.253	0.323242
519.146	9.16065
522.039	1.26672
524.931	24.8138
527.824	16.6019
530.717	2.19128
533.609	26.2063
536.502	8.41553
539.395	13.1555
542.288	11.6729
545.18	0.734375
548.073	8.65832
550.966	23.7078
553.858	6.32849
556.751	19.7284
559.644	12.7474
562.536	36.573
565.429	30.8218
568.322	3.97815
571.215	23.7701
574.107	4.54407
577	12.3473
579.893	1.41858
582.785	39.7959
585.678	3.00183
588.571	17.2568
591.463	3.77173
594.356	4.65942
597.249	30.6705
600.141	38.2955
603.034	20.5131
605.927	7.552
608.82	6.49585
611.712	31.9573
614.605	45.3608
617.498	32.4496
620.39	23.231
623.283	58.8147
626.176	24.2776
629.068	2.18579
631.961	21.4659
634.854	49.6766
637.747	13.0761
640.639	24.2365
643.532	26.1868
646.425	39.9131
649.317	19.5745
652.21	33.163
655.103	22.1234
657.995	13.0459
660.888	23.2239
663.781	29.907
666.674	41.5918
669.566	39.4171
672.459	22.803
675.352	28.4642
678.244	42.2111
681.137	4.70593
684.03	33.2087
686.923	5.53589
689.815	2.34815
692.708	31.2538
695.601	32.0347
698.493	27.787
701.386	36.0973
704.279	14.7489
707.171	24.21
710.064	13.4822
712.957	58.3326
715.85	7.28625
718.742	27.7128
721.635	39.3614
724.528	27.7627
727.42	15.1138
730.313	35.1212
733.206	20.1858
736.098	35.2662
738.991	61.6163
741.884	40.8772
744.777	20.1809
747.669	55.6804
750.562	33.3119
753.455	22.4615
756.347	47.2006
759.24	57.3783
762.133	37.9186
765.025	59.481
767.918	28.1361
770.811	31.8568
773.703	51.496
776.596	32.3907
779.489	5.13867
782.382	30.137
785.274	37.1398
788.167	14.5607
791.06	29.3861
793.952	11.5491
796.845	21.0301
799.738	11.4525
802.63	32.439
805.523	14.2863
808.416	33.2588
811.309	3.63001
814.201	40.3495
817.094	0.820313
819.987	6.98901
822.879	17.1484
825.772	19.5916
828.665	13.4047
831.558	19.3256
834.45	44.712
837.343	1.99817
840.236	21.1606
843.128	36.0734
846.021	26.2223
848.914	10.8149
851.806	41.6505
854.699	23.9634
857.592	117.632
860.485	101.032
863.377	152.589
866.27	181.073
869.163	215.483
872.055	178.448
874.948	134.556
877.841	104.45
880.733	91.3323
883.626	63.2964
886.519	85.7063
889.412	50.0493
892.304	30.2312
895.197	17.3436
898.09	16.7882
900.982	21.1853
903.875	9.76819
906.768	9.19397
909.66	3.91968
912.553	22.9742
915.446	33.6288
918.338	0.613037
921.231	26.1129
924.124	11.9425
927.017	11.1406
929.909	19.7217
932.802	22.3866
935.695	12.1187
938.587	5.98413
941.48	18.3999
944.373	4.26306
947.265	30.1887
950.158	13.3951
953.051	25.605
955.944	21.7384
958.836	24.8024
961.729	31.1834
964.622	35.3302
967.514	41.5637
970.407	30.4825
973.3	33.2461
976.192	10.1146
979.085	31.5957
981.978	21.3937
984.871	25.084
987.763	24.3003
990.656	33.3872
993.549	43.8516
996.441	13.5455
999.334	20.6509
1002.23	27.2795
1005.12	31.2714
1008.01	34.1407
1010.9	23.4976
1013.8	48.2527
1016.69	40.1578
1019.58	21.3643
1022.48	21.3557
1025.37	7.89734
1028.26	27.8989
1031.15	19.521
1034.05	8.63513
1036.94	8.31311
1039.83	47.155
1042.72	62.3227
1045.62	45.4659
1048.51	39.4486
1051.4	28.2858
1054.3	20.8937
1057.19	28.4022
1060.08	41.7293
1062.97	30.9413
1065.87	40.2867
1068.76	43.0322
1071.65	20.778
1074.54	35.4843
1077.44	16.2769
1080.33	28.9282
1083.22	46.9829
1086.12	18.108
1089.01	28.0742
1091.9	21.4977
1094.79	17.2207
1097.69	3.61609
1100.58	40.9764
1103.47	9.98865
1106.36	27.5877
1109.26	19.3023
1112.15	9.36096
1115.04	15.0229
1117.93	20.6499
1120.83	33.0441
1123.72	34.4524
1126.61	19.1724
1129.51	25.7194
1132.4	34.0335
1135.29	9.79138
1138.18	23.306
1141.08	13.3546
1143.97	9.49487
1146.86	12.0758
1149.76	21.1104
1152.65	0.192627
1155.54	9.74023
1158.43	22.6959
1161.33	7.85242
1164.22	17.1345
1167.11	23.2402
1170	25.6096
1172.9	0.372803
1175.79	9.86804
1178.68	30.343
1181.57	26.0315
1184.47	42.6001
1187.36	21.3793
1190.25	1.75488
1193.14	4.66797
1196.04	17.4924
1198.93	30.9899
1201.82	25.2261
1204.72	25.1697
1207.61	38.877
1210.5	34.3611
1213.39	40.0675
1216.29	7.14929
1219.18	1.39185
1222.07	18.5659
1224.96	32.9963
1227.86	21.7386
1230.75	37.1011
1233.64	33.3946
1236.54	36.9948
1239.43	28.4424
1242.32	61.7916
1245.21	31.1314
1248.11	18.3158
1251	72.9108
1253.89	34.3444
1256.78	49.5687
1259.68	25.0391
1262.57	4.17859
1265.46	13.771
