Measurement: Raman, 532 nm, unoriented, Raman Data Processed
Mineral: Ziesite
Rruff sample: R070482
Ideal chemistry: Cu^2+^_2_V^5+^_2_O_7_
Locality: Izalco Volcano, Sonsonate Department, El Salvador
Source: Michael Scott
Description: Dark brown to black poorly-formed grains scattered over white efflorescent material, co-type material, associated with well-formed crystals of fingerite, R070614
Raman shift (cm-1)	intensity
166.065	0
168.958	93.7039
171.851	149.545
174.743	40.0855
177.636	95.2602
180.529	65.5029
183.421	66.7476
186.314	129.908
189.207	222.938
192.1	269.909
194.992	325.068
197.885	197.893
200.778	120.486
203.67	49.6494
206.563	42.3167
209.456	132.718
212.348	86.8804
215.241	38.6682
218.134	12.5032
221.026	127.822
223.919	29.958
226.812	1.62988
229.705	53.2165
232.597	99.9956
235.49	99.9416
238.383	70.0603
241.275	113.162
244.168	163.85
247.061	270.134
249.954	122.106
252.846	51.7732
255.739	73.3223
258.632	85.1367
261.524	121.177
264.417	76.9651
267.31	202.593
270.202	147.825
273.095	148.997
275.988	166.404
278.881	75.0278
281.773	8.63208
284.666	29.6379
287.559	4.28149
290.451	41.4683
293.344	15.186
296.237	12.1951
299.13	28.239
302.022	28.5735
304.915	57.5984
307.808	33.8545
310.7	76.491
313.593	193.501
316.486	202.231
319.378	218.947
322.271	215.8
325.164	240.795
328.057	157.224
330.949	115.92
333.842	124.306
336.735	69.0181
339.627	137.524
342.52	71.6792
345.413	188.371
348.305	183.24
351.198	203.811
354.091	239.017
356.983	223.375
359.876	206.043
362.769	212.102
365.662	85.6646
368.554	97.8169
371.447	61.085
374.34	11.3501
377.232	54.2524
380.125	114.823
383.018	51.7398
385.911	32.3389
388.803	95.9248
391.696	31.5508
394.589	53.3472
397.481	65.9981
400.374	65.2959
403.267	25.3408
406.159	32.8359
409.052	86.2544
411.945	26.1328
414.837	62.604
417.73	35.3076
420.623	47.5923
423.516	36.8931
426.408	77.4414
429.301	29.7393
432.194	115.777
435.086	36.2661
437.979	33.4268
440.872	44.438
443.764	86.708
446.657	27.8027
449.55	55.3027
452.443	21.8696
455.335	88.21
458.228	114.663
461.121	114.756
464.014	143.251
466.906	75.7422
469.799	120.684
472.692	104.166
475.584	116.153
478.477	201.738
481.37	139.666
484.262	95.8447
487.155	91.4365
490.048	88.3789
492.94	113.961
495.833	128.059
498.726	47.1411
501.619	67.6294
504.511	58.606
507.404	54.9106
510.297	95.8086
513.189	38.7393
516.082	99.2241
518.975	109.438
521.867	177.41
524.76	190.008
527.653	277.455
530.546	304.295
533.438	435.864
536.331	500.102
539.224	408.882
542.116	529.919
545.009	295.287
547.902	283.06
550.794	191.34
553.687	178.23
556.58	98.3726
559.473	92.5801
562.365	121.824
565.258	60.9463
568.151	75.1133
571.043	91.0889
573.936	69.064
576.829	140.296
579.721	76.6934
582.614	48.7119
585.507	12.7808
588.4	50.0195
591.292	46.0669
594.185	5.48242
597.078	25.1528
599.97	20.7925
602.863	24.0928
605.756	27.7607
608.649	22.9556
611.541	43.8247
614.434	49.2266
617.327	16.502
620.219	7.74805
623.112	29.437
626.005	9.3794
628.897	46.6313
631.79	38.9175
634.683	36.273
637.576	91.8945
640.468	43.7075
643.361	115.531
646.254	83.6694
649.146	61.5547
652.039	96.311
654.932	142.811
657.824	140.883
660.717	88.3726
663.61	124.989
666.503	190.154
669.395	202.344
672.288	206.257
675.181	177.482
678.073	252.455
680.966	168.517
683.859	206.46
686.751	44.2261
689.644	83.3169
692.537	77.9556
695.43	34.1699
698.322	19.6582
701.215	42.0283
704.108	2.11377
707	29.3906
709.893	6.43506
712.786	25.2393
715.678	4.05127
718.571	22.8003
721.464	12.1299
724.357	21.3823
727.249	60.3687
730.142	108.657
733.035	113.074
735.927	61.9815
738.82	99.9614
741.713	212.862
744.606	190.679
747.498	257.704
750.391	222.426
753.284	319.563
756.176	565.495
759.069	823.961
761.962	1039.88
764.854	1323.5
767.747	1597.19
770.64	1742.17
773.533	1665.02
776.425	1351.71
779.318	1045.55
782.211	734.405
785.103	570.539
787.996	446.543
790.889	421.861
793.781	232.258
796.674	266.799
799.567	426.563
802.46	467.843
805.352	485.933
808.245	402.675
811.138	412.213
814.03	309.344
816.923	271.253
819.816	229.612
822.708	352.375
825.601	302.507
828.494	129.342
831.386	1.78223
834.279	8.03027
837.172	87.1758
840.065	19.7607
842.957	113.905
845.85	406.678
848.743	849.813
851.635	1536.06
854.528	2334.64
857.421	3166.7
860.313	3376.73
863.206	2758.19
866.099	1745.4
868.992	867.736
871.884	539.309
874.777	330.367
877.67	403.897
880.562	471.468
883.455	549.594
886.348	748.676
889.24	1061.97
892.133	1338.91
895.026	1159.66
897.919	814.509
900.811	365.238
903.704	171.147
906.597	274.743
909.489	397.565
912.382	737.254
915.275	1288.6
918.168	1804.62
921.06	2130.3
923.953	1712.61
926.846	1009.53
929.738	851.509
932.631	1038.3
935.524	1376.17
938.416	1346.97
941.309	819.811
944.202	419.065
947.095	169.44
949.987	36.1797
952.88	8.85938
955.773	82.7617
958.665	12.543
961.558	16.0498
964.451	55.999
967.343	1.06152
970.236	137.256
973.129	7.8916
976.021	69.9619
978.914	20.8506
981.807	13.2627
984.7	18.7871
987.592	61.3984
990.485	115.719
993.378	47.1582
996.27	13.3975
999.163	75.416
1002.06	6.61719
1004.95	68.0996
1007.84	75.1553
1010.73	189.856
1013.63	156.748
1016.52	34.1494
1019.41	57.8574
1022.3	75.167
1025.2	33.2363
1028.09	125.791
1030.98	251.275
1033.88	84.5781
1036.77	78.4492
1039.66	23.8906
1042.55	7.88672
1045.45	43.7627
1048.34	0.256836
1051.23	52.043
1054.12	32.2725
1057.02	41.0303
1059.91	77.0498
1062.8	29.3828
1065.69	134.082
1068.59	186.341
1071.48	200.866
1074.37	142.103
1077.27	108.17
1080.16	37.0605
1083.05	84.4023
1085.94	98.6641
1088.84	90.1475
1091.73	14.9727
1094.62	55.3174
1097.52	32.335
1100.41	118.038
1103.3	74.6309
1106.19	34.5742
1109.09	21.1328
1111.98	48.1904
1114.87	157.319
1117.76	86.6123
1120.66	32.8516
1123.55	21.5811
1126.44	57.9541
1129.34	74.4414
1132.23	123.706
1135.12	29.5283
1138.01	33.874
1140.91	57.3486
1143.8	154.867
1146.69	63.5645
1149.58	1.20019
1152.48	9.62695
1155.37	88.1328
1158.26	32.1875
1161.15	15.7178
1164.05	9.15527
1166.94	28.6475
1169.83	81.2207
1172.72	14.2676
1175.62	69.9463
1178.51	154.032
1181.4	157.909
1184.3	131.232
1187.19	148.412
1190.08	59.4404
1192.97	24.708
1195.87	64.5244
1198.76	19.4033
1201.65	86.2842
1204.55	61.5986
1207.44	22.1162
1210.33	69.5596
1213.22	82.9561
1216.12	102.038
1219.01	198.626
1221.9	316.446
1224.79	195.477
1227.69	124.736
1230.58	75.7705
1233.47	18.9961
1236.37	100.361
1239.26	86.2139
1242.15	103.031
1245.04	48.1152
1247.94	234.429
1250.83	100.077
1253.72	104.239
1256.61	39.4014
1259.51	35.4395
1262.4	232.06
1265.29	138.442
1268.18	201.443
1271.08	171.723
1273.97	101.529
1276.86	22.9824
1279.76	80.6807
1282.65	83.7647
1285.54	72.0391
1288.43	24.0225
1291.33	138.767
1294.22	95.7324
1297.11	67.9746
1300	71.5078
