Measurement: Raman, 785 nm, unoriented, Raman Data Processed
Mineral: Zincocopiapite
Rruff sample: R060779
Ideal chemistry: Zn^2+^Fe^3+^_4_(S^6+^O_4_)_6_(OH)_2_20H_2_O
Locality: Les Valettes, Wallis, Switzerland
Source: Michael Scott
Description: Brownish yellow granular
Raman shift (cm-1)	intensity
192.881	0
195.774	40.4292
198.666	17.6069
201.559	36.8369
204.452	121.609
207.344	161.195
210.237	276.234
213.13	342.676
216.023	523.805
218.915	681.861
221.808	651.974
224.701	618.062
227.593	562.829
230.486	528.335
233.379	628.618
236.271	599.789
239.164	694.998
242.057	722.573
244.95	791.962
247.842	855.44
250.735	890.611
253.628	935.444
256.52	1071.38
259.413	1180.52
262.306	1429.78
265.198	1567.71
268.091	1574.11
270.984	1468.65
273.877	1195.39
276.769	956.307
279.662	664.33
282.555	492.334
285.447	466.225
288.34	293.7
291.233	288.768
294.125	356.975
297.018	342.546
299.911	425.072
302.804	420.231
305.696	428.022
308.589	347.396
311.482	178.561
314.374	138.133
317.267	60.3565
320.16	27.063
323.052	67.2466
325.945	1.86133
328.838	21.6104
331.731	33.4829
334.623	27.0464
337.516	48.8906
340.409	32.7832
343.301	38.1645
346.194	34.5732
349.087	63.6187
351.979	68.23
354.872	45.7315
357.765	19.7207
360.658	16.939
363.55	14.1592
366.443	25.3477
369.336	25.8384
372.228	46.2695
375.121	111.787
378.014	83.9853
380.906	37.9619
383.799	4.09131
386.692	1.69678
389.585	0.821289
392.477	68.1123
395.37	72.5889
398.263	107.223
401.155	64.4477
404.048	156.329
406.941	132.25
409.833	149.695
412.726	254.695
415.619	371.185
418.512	483.049
421.404	621.442
424.297	692.555
427.19	683.161
430.082	646.465
432.975	591.044
435.868	616.007
438.76	646.547
441.653	689.644
444.546	746.214
447.439	860.508
450.331	896.781
453.224	854.277
456.117	746.296
459.009	674.09
461.902	712.662
464.795	731.169
467.687	675.672
470.58	692.576
473.473	689.29
476.366	666.48
479.258	633.266
482.151	534.994
485.044	476.768
487.936	441.741
490.829	413.116
493.722	366.722
496.614	290.74
499.507	248.637
502.4	209.215
505.293	126.288
508.185	94.5288
511.078	28.2671
513.971	4.3208
516.863	31.7324
519.756	5.21094
522.649	21.0547
525.541	17.6851
528.434	37.748
531.327	44.6958
534.219	14.0303
537.112	85.8472
540.005	96.606
542.898	136.403
545.79	115.73
548.683	147.925
551.576	87.5688
554.468	124.172
557.361	139.138
560.254	213.654
563.146	130.488
566.039	90.1768
568.932	96.7744
571.825	88.8765
574.717	49.7891
577.61	10.8115
580.503	10.5488
583.395	14.6504
586.288	73.3887
589.181	99.1421
592.073	149.635
594.966	124.644
597.859	78.7974
600.752	116.624
603.644	136.62
606.537	121.068
609.43	167.328
612.322	232.137
615.215	269.055
618.108	275.81
621	346.967
623.893	377.015
626.786	281.701
629.679	227.015
632.571	172.449
635.464	143.73
638.357	112.919
641.25	60.3477
644.142	17.0801
647.035	89.1299
649.928	14.4863
652.82	8.73438
655.713	71.9302
658.606	7.06689
661.498	52.2578
664.391	39.9033
667.284	73.3848
670.177	8.78174
673.069	44.5649
675.962	49.3843
678.855	83.6812
681.747	6.12207
684.64	23.0171
687.533	9.67627
690.425	19.6606
693.318	20.2783
696.211	52.8037
699.104	91.541
701.996	19.2197
704.889	2.94873
707.782	61.0762
710.674	7.10156
713.567	16.0625
716.46	44.0542
719.352	95.8423
722.245	63.9917
725.138	96.7529
728.031	68.2485
730.923	36.5659
733.816	42.1182
736.709	38.3628
739.601	56.9893
742.494	111.009
745.387	1.21143
748.279	65.0527
751.172	115.228
754.065	78.7773
756.958	74.1123
759.85	13.9961
762.743	51.1265
765.636	37.9424
768.528	8.69434
771.421	42.7017
774.314	88.1499
777.206	39.8037
780.099	73.6973
782.992	51.3535
785.885	50.2246
788.777	62.9502
791.67	81.2852
794.563	35.4868
797.455	66.3828
800.348	21.396
803.241	13.8525
806.133	11.3159
809.026	68.4981
811.919	43.9228
814.812	20.8213
817.704	63.5317
820.597	39.3809
823.49	11.624
826.382	41.0967
829.275	92.7959
832.168	42.4941
835.06	61.8091
837.953	104.697
840.846	98.6138
843.738	80.7173
846.631	59.4019
849.524	90.7656
852.417	36.0669
855.309	111.423
858.202	77.3857
861.095	95.6694
863.987	75.5283
866.88	71.5718
869.773	68.6846
872.665	74.0718
875.558	60.9497
878.451	89.9233
881.344	36.209
884.236	72.7285
887.129	33.8975
890.022	14.5234
892.914	27.6724
895.807	53.2959
898.7	46.0752
901.592	20.8628
904.485	67.0015
907.378	100.541
910.271	95.3115
913.163	25.4175
916.056	57.8418
918.949	9.61084
921.841	5.95264
924.734	41.5093
927.627	20.4873
930.519	29.2275
933.412	60.4062
936.305	1.02393
939.198	50.8545
942.09	36.8203
944.983	26.8491
947.876	43.4009
950.768	15.8901
953.661	27.9399
956.554	13.627
959.446	26.8569
962.339	34.2295
965.232	63.2949
968.125	111.653
971.017	151.549
973.91	231.088
976.803	324.467
979.695	368.198
982.588	420.163
985.481	518.695
988.373	497.821
991.266	635.967
994.159	591.601
997.052	712.167
999.944	918.766
1002.84	1191.26
1005.73	1383.5
1008.62	1316.95
1011.51	1315.45
1014.41	1404.06
1017.3	1574.71
1020.19	1560.64
1023.09	1443.88
1025.98	1132.12
1028.87	812.374
1031.76	638.701
1034.66	383.889
1037.55	303.255
1040.44	220.899
1043.34	134.285
1046.23	103.451
1049.12	13.2109
1052.01	26.0601
1054.91	4.04297
1057.8	19.8061
1060.69	2.18848
1063.58	37.8877
1066.48	43.8745
1069.37	0.670898
1072.26	1.43701
1075.15	11.9326
1078.05	15.895
1080.94	84.9541
1083.83	78.7437
1086.72	159.958
1089.62	243.284
1092.51	299.728
1095.4	363.752
1098.3	345.063
1101.19	336.381
1104.08	280.642
1106.97	307.852
1109.87	254.706
1112.76	138.586
1115.65	157.164
1118.55	153.307
1121.44	141.613
1124.33	88.2969
1127.22	85.9463
1130.12	51.7876
1133.01	72.1245
1135.9	32.4443
1138.79	37.6006
1141.69	45.2876
1144.58	16.0923
1147.47	48.5317
1150.37	70.2334
1153.26	30.2983
1156.15	94.2983
1159.04	76.6519
1161.93	88.3911
1164.83	131.826
1167.72	117.674
1170.61	147.265
1173.51	79.4399
1176.4	49.8237
1179.29	37.6812
1182.18	66.8735
1185.08	4.3374
1187.97	4.75781
1190.86	22.1726
1193.76	69.3193
1196.65	12.6768
1199.54	40.0166
1202.43	63.4685
1205.33	38.7795
1208.22	48.8193
1211.11	75.2244
1214	73.7122
1216.9	84.7402
1219.79	110.332
1222.68	104.581
1225.58	122.151
1228.47	110.24
1231.36	175.445
1234.25	109.552
1237.15	79.1689
1240.04	52.895
1242.93	49.6643
1245.82	65.2429
1248.72	97.2305
1251.61	87.6977
1254.5	52.4312
1257.39	41.1826
1260.29	4.97583
