Measurement: Raman, 532 nm, unoriented, Raman Data Processed
Mineral: Zincolibethenite
Rruff sample: R150008
Ideal chemistry: Cu^2+^Zn^2+^P^5+^O_4_(OH)
Locality: Skorpion mine, Rosh Pinah, Namibia
Source: Marcus Origlieri
Description: Irregular bright blue-green crystals, associated with colorless, prismatic hemimorphite.
Raman shift (cm-1)	intensity
100.872	0
104.247	1.08106
107.621	51.0952
110.996	122.213
114.371	201.055
117.746	273.188
121.121	285.121
124.496	343.748
127.87	322.125
131.245	317.447
134.62	301.601
137.995	296.012
141.37	314.42
144.744	348.227
148.119	347.453
151.494	274.411
154.869	215.753
158.244	155.71
161.619	124.719
164.993	118.267
168.368	107.099
171.743	119.399
175.118	94.0269
178.493	97.1646
181.868	51.294
185.242	36.4346
188.617	31.271
191.992	52.2671
195.367	56.2329
198.742	96.5806
202.116	136.266
205.491	189.794
208.866	275.784
212.241	367.272
215.616	431.592
218.99	377.376
222.365	267.111
225.74	155.586
229.115	76.6333
232.49	8.08643
235.865	1.53906
239.239	1.48877
242.614	21.2935
245.989	9.95703
249.364	1.33643
252.739	10.4946
256.113	6.98779
259.488	21.5459
262.863	38.6265
266.238	43.5381
269.613	67.3081
272.988	137.552
276.362	230.115
279.737	330.851
283.112	450.519
286.487	610.538
289.862	778.009
293.236	915.15
296.611	923.09
299.986	666.52
303.361	424.547
306.736	237.073
310.111	149.311
313.485	86.0825
316.86	33.7275
320.235	7.20215
323.61	3.71484
326.985	2.71484
330.359	1.90088
333.734	5.92334
337.109	39.1777
340.484	77.1035
343.859	93.4678
347.233	118.707
350.608	133.469
353.983	128.019
357.358	118.779
360.733	115.241
364.108	111.668
367.482	88.5781
370.857	46.3242
374.232	35.5654
377.607	55.0049
380.982	48.6572
384.356	40.0518
387.731	39.8379
391.106	15.8438
394.481	4.74316
397.856	0.483398
401.231	23.5859
404.605	32.0508
407.98	10.4434
411.355	1.38086
414.73	22.2656
418.105	59.168
421.479	62.2822
424.854	29.291
428.229	25.6377
431.604	0.916016
434.979	6.33301
438.354	23.2969
441.728	54.4853
445.103	43.7012
448.478	48.0498
451.853	60.4492
455.228	71.0527
458.603	100.441
461.977	115.894
465.352	116.289
468.727	117.232
472.102	106.619
475.477	28.5645
478.851	12.0234
482.226	25.7168
485.601	34.9473
488.976	47.6397
492.351	49.8623
495.726	20.2197
499.1	13.0547
502.475	14.794
505.85	2.60742
509.225	11.3428
512.6	7.36035
515.974	7.04785
519.349	14.5527
522.724	2.47949
526.099	23.7979
529.474	5.91309
532.848	27.4141
536.223	42.0088
539.598	65.5234
542.973	97.9668
546.348	174.226
549.722	205.144
553.097	217.851
556.472	220.165
559.847	241.098
563.222	259.726
566.597	228.822
569.971	195.231
573.346	209.608
576.721	207.67
580.096	147.526
583.471	90.4189
586.846	103.696
590.22	53.0176
593.595	19.6357
596.97	1.48242
600.345	6.80566
603.72	10.3916
607.094	33.3408
610.469	33.1318
613.844	37.2715
617.219	45.6465
620.594	69.8926
623.968	86.6982
627.343	79.5859
630.718	60.9639
634.093	53.8984
637.468	75.1309
640.843	99.5117
644.217	115.548
647.592	74.1055
650.967	68.8789
654.342	25.8936
657.717	5.86719
661.091	3.06641
664.466	3.18555
667.841	11.8184
671.216	4.63769
674.591	8.53027
677.966	11.4121
681.34	24.1201
684.715	10.4453
688.09	20.2148
691.465	38.0791
694.84	18.418
698.215	21.3945
701.589	28.8584
704.964	39.7002
708.339	62.3555
711.714	59.8565
715.089	56.9453
718.463	58.0283
721.838	58.4092
725.213	91.3203
728.588	85.8486
731.963	69.2168
735.337	63.9355
738.712	84.2031
742.087	80.5019
745.462	96.3613
748.837	99.3154
752.212	106.044
755.586	85.3106
758.961	46.9121
762.336	72.5342
765.711	58.4375
769.086	52.2109
772.46	67.9727
775.835	54.042
779.21	37.3867
782.585	36.6103
785.96	43.1797
789.335	26.6855
792.709	6.37109
796.084	4.27441
799.459	10.0479
802.834	28.2139
806.209	42.5664
809.583	38.3369
812.958	32.9209
816.333	21.8828
819.708	51.2773
823.083	25.1631
826.457	21.1064
829.832	12.2539
833.207	18.999
836.582	7.46191
839.957	44.6572
843.332	53.0859
846.706	57.332
850.081	26.4199
853.456	21.9365
856.831	32.4375
860.206	41.918
863.581	20.8574
866.955	13.9434
870.33	7.48438
873.705	27.4414
877.08	1.24609
880.455	3.80762
883.829	9.86914
887.204	22.1143
890.579	12.7666
893.954	26.9619
897.329	26.3047
900.703	21.2109
904.078	19.9023
907.453	6.26953
910.828	2.50879
914.203	12.5723
917.578	10.8477
920.952	0.839844
924.327	16.6846
927.702	13.2227
931.077	5.31738
934.452	7.32519
937.827	1.11035
941.201	4.45801
944.576	59.6348
947.951	79.0186
951.326	103.206
954.701	167.005
958.075	235.816
961.45	394.337
964.825	639.343
968.2	952.74
971.575	1224.91
974.949	1352.44
978.324	1196.84
981.699	848.367
985.074	546.858
988.449	332.778
991.823	213.196
995.198	130.109
998.573	117.134
1001.95	102.247
1005.32	118.199
1008.7	160.288
1012.07	206.637
1015.45	287.057
1018.82	338.688
1022.2	302.387
1025.57	259.477
1028.95	212.388
1032.32	176.409
1035.7	162.573
1039.07	172.506
1042.45	168.648
1045.82	170.427
1049.19	145.949
1052.57	113.285
1055.94	90.6992
1059.32	30.5801
1062.69	21.2598
1066.07	31.4531
1069.44	22.7725
1072.82	3.65918
1076.19	7.29394
1079.57	1.65137
1082.94	11.5176
1086.32	0.673828
1089.69	1.38379
1093.07	4.08594
1096.44	0.317383
1099.82	18.2168
1103.19	0.162109
1106.57	5.57812
1109.94	25.833
1113.32	46.3027
1116.69	38.9053
1120.07	59.5615
1123.44	83.2637
1126.82	82.2939
1130.19	82.1689
1133.57	106.555
1136.94	80.5889
1140.32	58.6885
1143.69	49.0596
1147.07	14.668
1150.44	7.33594
1153.82	27.7998
1157.19	27.2637
1160.56	36.7471
1163.94	13.6367
1167.31	2.36328
1170.69	32.2471
1174.06	26.9297
1177.44	26.9521
1180.81	30.0947
1184.19	32.9795
1187.56	60.0273
1190.94	45.9756
1194.31	37.7666
1197.69	32.6279
1201.06	13.3662
1204.44	29.4961
1207.81	33.1025
1211.19	32.8633
1214.56	23.0059
1217.94	38.9228
1221.31	37.3828
1224.69	23.3213
1228.06	2.21973
1231.44	4.72461
1234.81	7.69922
1238.18	13.6406
1241.56	20.8145
1244.93	34.2705
1248.31	42.8281
1251.68	38.3008
1255.06	46.9932
1258.43	33.7119
1261.81	40.3838
1265.18	9.71973
1268.56	9.29688
1271.93	5.69336
1275.31	12.5049
1278.68	17.8984
1282.06	16.2998
1285.43	30.9912
1288.81	35.918
1292.18	16.5918
1295.56	20.1191
1298.93	4.83008
