Measurement: Raman, 780 nm, unoriented, Raman Data Processed
Mineral: Zincolibethenite
Rruff sample: R150008
Ideal chemistry: Cu^2+^Zn^2+^P^5+^O_4_(OH)
Locality: Skorpion mine, Rosh Pinah, Namibia
Source: Marcus Origlieri
Description: Irregular bright blue-green crystals, associated with colorless, prismatic hemimorphite.
Raman shift (cm-1)	intensity
101.202	0
104.577	2.41638
107.952	16.2632
111.327	1.85901
114.701	7.50055
118.076	9.96692
121.451	0.684082
124.826	11.2355
128.201	5.87299
131.576	17.2584
134.95	17.2318
138.325	23.8285
141.7	36.0002
145.075	25.837
148.45	12.9567
151.825	5.67896
155.199	0.153778
158.574	4.08331
161.949	0.537689
165.324	1.76486
168.698	6.19275
172.073	9.70142
175.448	11.0182
178.823	10.5168
182.198	6.67465
185.573	8.60516
188.947	9.06577
192.322	13.046
195.697	17.3743
199.072	25.3396
202.447	28.1528
205.821	38.388
209.196	40.9734
212.571	43.258
215.946	35.4211
219.321	30.6461
222.696	20.4041
226.07	14.2758
229.445	11.6245
232.82	9.81741
236.195	8.84573
239.57	8.5874
242.945	8.93759
246.319	10.9245
249.694	9.25699
253.069	9.22855
256.444	4.14926
259.818	3.41937
263.193	7.0177
266.568	7.81644
269.943	8.09729
273.318	16.828
276.693	22.1805
280.067	34.5358
283.442	48.8174
286.817	59.8935
290.192	74.3444
293.567	75.622
296.942	61.2553
300.316	42.859
303.691	27.901
307.066	12.9175
310.441	8.76517
313.816	3.14825
317.19	1.12158
320.565	0.681824
323.94	0.287415
327.315	1.25638
330.69	1.54215
334.065	0.404327
337.439	2.47967
340.814	5.25693
344.189	8.3439
347.564	9.53433
350.938	8.21344
354.313	7.18317
357.688	4.87811
361.063	4.67889
364.438	3.43048
367.813	4.71362
371.187	4.2558
374.562	0.221619
377.937	1.48508
381.312	2.11545
384.687	1.65237
388.062	0.441406
391.436	2.91681
394.811	2.0065
398.186	0.331451
401.561	0.817474
404.935	1.33804
408.31	2.99829
411.685	3.61258
415.06	2.76721
418.435	0.865631
421.81	3.6294
425.184	4.556
428.559	3.79935
431.934	3.44653
435.309	4.62701
438.684	3.39496
442.058	5.65607
445.433	6.95664
448.808	7.25482
452.183	8.66165
455.558	6.78845
458.933	7.87167
462.307	11.0582
465.682	11.3889
469.057	10.0672
472.432	10.5748
475.807	9.1647
479.182	5.79941
482.556	6.40829
485.931	2.69299
489.306	0.057251
492.681	5.31583
496.055	4.08551
499.43	1.19748
502.805	2.01138
506.18	1.09106
509.555	0.892578
512.93	0.435287
516.304	1.72643
519.679	0.064438
523.054	0.956238
526.429	1.19943
529.804	0.046219
533.178	3.56871
536.553	6.28836
539.928	9.10719
543.303	10.887
546.678	12.2544
550.053	10.8915
553.427	9.22856
556.802	10.6147
560.177	13.4367
563.552	12.3972
566.927	12.9265
570.302	10.8199
573.676	11.4775
577.051	6.52595
580.426	5.85474
583.801	2.79582
587.176	1.45404
590.55	0.984848
593.925	1.06612
597.3	0.235107
600.675	1.52592
604.05	2.42595
607.424	4.09859
610.799	3.96553
614.174	4.34551
617.549	4.55031
620.924	4.5461
624.298	6.11165
627.673	4.10761
631.048	7.1022
634.423	9.72551
637.798	10.7385
641.173	12.2192
644.547	9.33516
647.922	7.03342
651.297	2.19736
654.672	3.97839
658.047	3.54804
661.421	0.945908
664.796	2.38376
668.171	1.58725
671.546	2.69934
674.921	2.47939
678.295	1.06029
681.67	1.89243
685.045	0.051041
688.42	1.13284
691.795	0.337494
695.17	1.47101
698.544	1.24489
701.919	0.604279
705.294	1.42349
708.669	1.35228
712.044	2.18358
715.418	0.796295
718.793	0.061295
722.168	0.809753
725.543	1.98352
728.918	1.26443
732.293	2.20917
735.667	0.998428
739.042	0.515671
742.417	2.00017
745.792	0.107193
749.167	1.30762
752.541	0.633987
755.916	1.22328
759.291	0.91832
762.666	0.902206
766.041	2.42535
769.415	3.58565
772.79	4.2383
776.165	0.808365
779.54	1.83759
782.915	2.22494
786.29	0.758499
789.664	0.357788
793.039	1.04781
796.414	4.35262
799.789	5.617
803.164	4.88419
806.538	5.55559
809.913	5.83171
813.288	4.83662
816.663	4.83008
820.038	5.56438
823.413	4.27062
826.787	4.68695
830.162	5.97487
833.537	6.01718
836.912	5.18072
840.287	6.29526
843.661	5.96551
847.036	7.63339
850.411	8.39029
853.786	8.02165
857.161	7.76708
860.535	5.33656
863.91	6.25938
867.285	4.41473
870.66	5.84497
874.035	6.52913
877.409	5.28006
880.784	4.17174
884.159	3.40968
887.534	1.61461
890.909	2.26468
894.284	1.85261
897.658	2.32574
901.033	2.14621
904.408	0.68483
907.783	0.822647
911.158	0.882751
914.533	0.656021
917.907	0.807373
921.282	0.314941
924.657	0.981705
928.032	1.24243
931.407	0.798294
934.781	0.383804
938.156	1.55789
941.531	2.64613
944.906	2.48199
948.281	4.15442
951.655	6.52544
955.03	10.2385
958.405	17.5105
961.78	25.3032
965.155	36.7288
968.529	50.9977
971.904	62.3109
975.279	67.34
978.654	55.8865
982.029	38.6379
985.404	22.0377
988.778	15.9526
992.153	11.0838
995.528	5.50081
998.903	4.43478
1002.28	4.02042
1005.65	4.82144
1009.03	6.02661
1012.4	7.34778
1015.78	9.71526
1019.15	9.9521
1022.53	8.74773
1025.9	7.74526
1029.28	8.38023
1032.65	7.34816
1036.03	7.51839
1039.4	7.45065
1042.78	8.33594
1046.15	6.87698
1049.53	6.74689
1052.9	4.28883
1056.28	3.29318
1059.65	0.737671
1063.02	2.72678
1066.4	0.929398
1069.77	1.29384
1073.15	1.60127
1076.52	1.13168
1079.9	0.497849
1083.27	1.00932
1086.65	0.210312
1090.02	0.289566
1093.4	2.05011
1096.77	0.811722
1100.15	0.320602
1103.52	0.488876
1106.9	3.15581
1110.27	2.58299
1113.65	0.394897
1117.02	1.85075
1120.4	2.83803
1123.77	2.87685
1127.15	3.98097
1130.52	3.25639
1133.9	3.24582
1137.27	2.48476
1140.64	1.53194
1144.02	2.16827
1147.39	1.27774
1150.77	0.711227
1154.14	1.13379
1157.52	0.421722
1160.89	2.75833
1164.27	2.09601
1167.64	2.14233
1171.02	1.75978
1174.39	2.84805
1177.77	1.50327
1181.14	1.79376
1184.52	2.01913
1187.89	3.25923
1191.27	2.03087
1194.64	2.65637
1198.02	3.71713
1201.39	3.97745
1204.77	2.3848
1208.14	3.1144
1211.52	3.44206
1214.89	1.91302
1218.27	0.966125
1221.64	2.29172
1225.02	0.201355
1228.39	1.0744
1231.77	2.15157
1235.14	2.24466
1238.52	0.619507
1241.89	0.247269
1245.26	1.33656
1248.64	0.491516
1252.01	1.27313
1255.39	1.21945
1258.76	2.77713
1262.14	0.69429
1265.51	1.39948
1268.89	1.01212
1272.26	0.523575
1275.64	1.76167
1279.01	1.25368
1282.39	1.66786
