Measurement: Raman, 532 nm, unoriented, Raman Data Processed
Mineral: Zinkenite
Rruff sample: R060186
Ideal chemistry: Pb^2+^_9_Sb^3+^_22_S^2-^_42_
Locality: Llallagua, Potosi Department, Bolivia
Source: Lloyd Twaites
Description: Lead-gray metallic foliated fragment intimately associated with stibnite
Measured chemistry: lighter phase: (Pb_8.84_Cu_0.16_)_Σ=9_(Sb_21.92_As_0.08_)_Σ=22_S_42.00_ ; darker phase: Sb_2.00_S_3.00_
Raman shift (cm-1)	intensity
125.94	0
129.315	1.8665
132.69	2.15698
136.065	8.92872
139.44	16.1824
142.815	15.6605
146.189	23.197
149.564	35.3624
152.939	44.1664
156.314	53.2601
159.689	54.2571
163.063	59.2067
166.438	63.9288
169.813	66.7688
173.188	68.7838
176.563	70.0491
179.938	70.4561
183.312	67.3341
186.687	64.3381
190.062	61.4423
193.437	59.4074
196.812	56.3339
200.186	52.4301
203.561	49.9473
206.936	37.7406
210.311	31.5189
213.686	25.0803
217.06	18.9328
220.435	13.2262
223.81	11.7949
227.185	10.4896
230.56	10.3192
233.935	10.2551
237.31	6.55748
240.684	2.01292
244.059	1.78022
247.434	1.81898
250.809	1.44239
254.184	0.775442
257.558	2.31397
260.933	7.00752
264.308	15.057
267.683	23.7554
271.058	47.3
274.433	53.9405
277.807	59.4941
281.182	62.6516
284.557	62.5791
287.932	63.6324
291.307	69.8251
294.681	77.0825
298.056	80.337
301.431	78.6583
304.806	69.482
308.181	56.2027
311.555	35.2942
314.93	16.677
318.305	6.75787
321.68	1.58093
325.055	2.04044
328.43	1.06077
331.804	0.041776
335.179	1.2214
338.554	0.027481
341.929	0.340642
345.304	0.57139
348.679	1.63999
352.053	1.05432
355.428	1.47251
358.803	3.4928
362.178	3.78404
365.553	3.44163
368.928	3.85735
372.302	4.67789
375.677	5.66516
379.052	5.31503
382.427	5.82179
385.802	5.17213
389.176	6.27728
392.551	3.58408
395.926	4.57561
399.301	2.39445
402.676	2.19168
406.05	2.73399
409.425	0.707762
412.8	2.54431
416.175	1.55167
419.55	2.47006
422.925	2.22262
426.299	2.51779
429.674	0.818949
433.049	0.118433
436.424	1.73375
439.799	0.627945
443.174	1.30842
446.548	0.797156
449.923	0.12341
453.298	0.922619
456.673	1.58137
460.048	1.11051
463.423	0.738215
466.797	1.23511
470.172	0.659733
473.547	0.822885
476.922	0.814351
480.297	0.679451
483.671	1.57951
487.046	1.95309
490.421	0.446777
493.796	1.12828
497.171	1.69156
500.546	0.262382
503.92	1.79702
507.295	1.53247
510.67	0.343218
514.045	0.722745
517.42	1.11809
520.794	0.726525
524.169	1.58555
527.544	0.066905
530.919	0.795986
534.294	1.44735
537.669	0.57194
541.043	0.011417
544.418	0.186299
547.793	0.500758
551.168	0.779765
554.543	0.215703
557.918	0.103705
561.292	0.142236
564.667	0.597491
568.042	0.694667
571.417	1.10693
574.792	0.365094
578.166	1.3226
581.541	0.140444
584.916	0.658124
588.291	0.38916
591.666	1.30321
595.04	0.641212
598.415	0.043621
601.79	1.32706
605.165	0.502669
608.54	1.0696
611.915	0.638428
615.289	0.479916
618.664	0.990228
622.039	0.007866
625.414	0.262854
628.789	1.37809
632.164	0.889404
635.538	2.02186
638.913	1.18241
642.288	0.133588
645.663	1.70172
649.038	1.65425
652.413	1.16788
655.787	0.991458
659.162	0.540739
662.537	1.31971
665.912	0.838641
669.287	0.100796
672.661	0.567643
676.036	1.39617
679.411	1.5221
682.786	0.697541
686.161	0.046609
689.535	1.3677
692.91	0.667203
696.285	1.84807
699.66	1.16586
703.035	0.067062
706.41	0.786905
709.784	0.134208
713.159	0.923353
716.534	0.124242
719.909	1.44479
723.284	1.89912
726.659	0.95107
730.033	2.01201
733.408	1.79168
736.783	1.81051
740.158	0.743378
743.533	0.44435
746.908	0.107424
750.282	0.465958
753.657	0.397195
757.032	0.176084
760.407	0.992901
763.782	0.881119
767.156	0.343509
770.531	0.329586
773.906	1.14014
777.281	1.42202
780.656	1.66243
784.03	0.208164
787.405	2.25658
790.78	0.730456
794.155	0.62254
797.53	2.08283
800.905	0.6232
804.279	1.08012
807.654	1.01125
811.029	0.726511
814.404	1.10872
817.779	1.30602
821.154	0.173349
824.528	0.915325
827.903	0.599953
831.278	0.943799
834.653	1.66602
838.028	1.36893
841.403	1.90156
844.777	2.1257
848.152	1.49852
851.527	1.93439
854.902	1.36609
858.277	1.62549
861.651	2.03422
865.026	2.12716
868.401	1.00218
871.776	0.587297
875.151	0.807128
878.525	2.0406
881.9	0.714876
885.275	0.576017
888.65	1.15846
892.025	1.37855
895.4	0.043143
898.774	0.829044
902.149	0.00066
905.524	1.26961
908.899	1.20561
912.274	0.969434
915.649	0.843767
919.023	0.3586
922.398	1.47381
925.773	0.053134
929.148	0.128491
932.523	0.612947
935.898	0.731982
939.272	1.37771
942.647	0.675937
946.022	0.720262
949.397	0.003185
952.771	0.70435
956.146	0.29314
959.521	0.211402
962.896	0.155217
966.271	0.208806
969.646	0.24754
973.02	0.37512
976.395	1.59594
979.77	0.904916
983.145	0.59351
986.52	1.15858
989.895	0.298404
993.269	0.880078
996.644	1.30038
1000.02	0.409439
1003.39	1.68957
1006.77	0.583385
1010.14	1.5698
1013.52	1.22061
1016.89	1.33421
1020.27	0.047455
1023.64	0.980679
1027.02	0.88279
1030.39	1.15311
1033.77	1.16025
1037.14	1.67422
1040.52	2.13269
1043.89	1.10647
1047.27	0.646977
1050.64	1.66854
1054.02	0.410821
1057.39	1.6924
1060.77	1.85265
1064.14	0.121423
1067.52	0.397166
1070.89	1.60459
1074.27	0.012819
1077.64	1.10767
1081.02	0.544952
1084.39	0.543465
1087.76	1.5162
1091.14	1.21679
1094.51	1.38537
1097.89	0.866314
1101.26	1.64222
1104.64	0.820704
1108.01	0.114984
1111.39	1.2689
1114.76	0.050593
1118.14	1.20055
1121.51	1.70155
1124.89	0.248776
1128.26	0.54412
1131.64	0.613602
1135.01	0.850446
1138.39	0.125777
1141.76	0.740362
1145.14	1.00072
1148.51	1.2848
1151.89	0.296925
1155.26	0.334666
1158.64	0.121543
1162.01	0.579603
1165.38	1.36591
1168.76	0.555501
1172.13	0.22498
1175.51	0.091535
1178.88	0.089778
1182.26	0.471479
1185.63	0.16133
1189.01	0.655456
1192.38	2.16426
1195.76	0.077464
1199.13	0.123119
1202.51	1.29087
1205.88	0.920841
1209.26	1.10912
1212.63	0.53705
1216.01	0.117803
1219.38	2.11138
1222.76	0.54385
1226.13	1.19432
1229.51	0.107216
1232.88	1.11473
1236.26	0.655883
1239.63	0.736837
1243.01	0.455104
1246.38	1.02468
1249.76	1.01942
1253.13	0.984538
1256.51	0.554546
1259.88	1.33581
1263.26	1.17934
1266.63	0.211886
1270.01	1.4394
1273.38	1.52216
1276.75	1.00046
1280.13	1.63535
1283.5	0.360562
1286.88	0.606023
1290.25	1.40917
1293.63	0.627721
1297	0.22259
1300.38	0.417312
