Measurement: Raman, 785 nm, unoriented, Raman Data Processed
Mineral: Zinkenite
Rruff sample: R070577
Ideal chemistry: Pb^2+^_9_Sb^3+^_22_S^2-^_42_
Locality: Jetty mine, near Anaconda, Deer Lodge County, Montana, USA
Source: James Shigley
Description: Gray metallic massive
Raman shift (cm-1)	intensity
128.803	0
131.696	528.349
134.589	769.684
137.481	700.312
140.374	776.286
143.267	1605.4
146.16	2721.05
149.052	3582.29
151.945	4045.97
154.838	3587.62
157.73	2981.14
160.623	2488.08
163.516	2064.86
166.409	1493.1
169.301	1019.39
172.194	530.215
175.087	96.5596
177.979	180.269
180.872	339.247
183.765	363.619
186.657	251.731
189.55	183.37
192.443	640.857
195.335	1169.18
198.228	2055.74
201.121	3089.11
204.014	4388.35
206.906	5640.38
209.799	6658.41
212.692	7343.08
215.584	7803.66
218.477	8416.65
221.37	8780.86
224.262	9130.51
227.155	9397.57
230.048	9657.72
232.941	10055.8
235.833	10715.8
238.726	11576.7
241.619	12731.5
244.511	14021.6
247.404	15781.5
250.297	17599.4
253.19	20109.7
256.082	22425.3
258.975	24669.3
261.868	26734
264.76	29044
267.653	30589.6
270.546	31382.9
273.438	31449.2
276.331	29798.7
279.224	26177.6
282.116	22387.4
285.009	19116.7
287.902	16440.2
290.795	13597.6
293.687	10606.7
296.58	7602.3
299.473	5150.92
302.365	3368.25
305.258	2239.02
308.151	1301.47
311.043	561.508
313.936	127.311
316.829	115.777
319.722	62.3701
322.614	3.55566
325.507	2.10156
328.4	127.129
331.292	215.47
334.185	42.2095
337.078	470.918
339.971	1461.2
342.863	2917.25
345.756	4649.81
348.649	6475.32
351.541	8595.45
354.434	9769.49
357.327	7055.16
360.219	3307.07
363.112	1119.92
366.005	270.44
368.897	5.44165
371.79	72.792
374.683	99.8638
377.576	74.3354
380.468	19.6226
383.361	26.0166
386.254	84.9987
389.146	187.704
392.039	272.249
394.932	406.538
397.825	533.166
400.717	613.465
403.61	682.466
406.503	804.021
409.395	886.708
412.288	996.016
415.181	1080.38
418.073	1156.38
420.966	1185.41
423.859	1262.99
426.752	1272.39
429.644	1215.74
432.537	1139.45
435.43	1037.57
438.322	969.767
441.215	858.644
444.108	803.627
447	744.224
449.893	680.681
452.786	674.46
455.678	596.328
458.571	560.708
461.464	563.867
464.357	504.253
467.249	475.742
470.142	454.195
473.035	401.567
475.927	395.999
478.82	372.819
481.713	313.892
484.606	295.323
487.498	285.88
490.391	232.839
493.284	218.402
496.176	186.645
499.069	165.872
501.962	154.697
504.854	137.228
507.747	137.186
510.64	121.549
513.533	95.8304
516.425	84.5229
519.318	46.7901
522.211	43.5265
525.103	54.1762
527.996	46.0275
530.889	28.6363
533.781	18.6469
536.674	32.58
539.567	14.3301
542.46	15.5505
545.352	20.6058
548.245	9.75659
551.138	22.455
554.03	0.896729
556.923	8.35034
559.816	15.867
562.708	6.63379
565.601	14.1687
568.494	4.09589
571.386	18.7624
574.279	10.8214
577.172	14.352
580.065	8.60132
582.957	7.75116
585.85	3.25275
588.743	5.84582
591.635	7.02124
594.528	10.4867
597.421	3.44806
600.313	13.0536
603.206	6.74359
606.099	22.5878
608.992	12.8062
611.884	30.1523
614.777	23.5173
617.67	33.7485
620.562	26.2505
623.455	21.7892
626.348	21.6696
629.24	19.3319
632.133	36.1652
635.026	17.9762
637.919	34.6425
640.811	10.6666
643.704	34.5776
646.597	25.5883
649.489	35.0081
652.382	27.8901
655.275	19.9904
658.168	41.8992
661.06	58.6582
663.953	40.1333
666.846	50.2338
669.738	50.6177
672.631	63.4854
675.524	57.8606
678.416	59.8442
681.309	67.4095
684.202	67.2976
687.095	62.0286
689.987	47.6901
692.88	34.9454
695.773	47.288
698.665	22.5096
701.558	8.00644
704.451	17.8238
707.343	9.57709
710.236	14.8732
713.129	21.0134
716.021	7.21197
718.914	11.0739
721.807	15.3603
724.7	9.63098
727.592	13.7062
730.485	23.3704
733.378	12.1959
736.27	11.0822
739.163	29.69
742.056	15.8235
744.948	19.5891
747.841	28.1099
750.734	39.0906
753.627	24.3456
756.519	33.5971
759.412	32.4921
762.305	17.38
765.197	34.2473
768.09	31.977
770.983	45.6725
773.875	29.0075
776.768	12.5877
779.661	28.1742
782.554	18.3172
785.446	19.8939
788.339	29.3324
791.232	19.0842
794.125	15.6454
797.017	15.5222
799.91	21.9268
802.803	24.09
805.695	13.3759
808.588	3.08066
811.481	16.0003
814.373	17.894
817.266	16.9382
820.159	9.83353
823.052	12.4459
825.944	5.08882
828.837	2.73419
831.73	13.0712
834.622	4.69504
837.515	16.126
840.408	0.270798
843.3	9.88347
846.193	0.15062
849.086	19.576
851.979	5.51294
854.871	8.47763
857.764	2.362
860.657	4.18358
863.549	6.34468
866.442	3.752
869.335	21.2854
872.227	5.72336
875.12	9.38159
878.013	9.64017
880.905	12.7583
883.798	0.577423
886.691	8.11536
889.584	4.96129
892.476	8.67661
895.369	8.054
898.262	7.22978
901.154	4.91803
904.047	22.5403
906.94	8.61856
909.832	9.07768
912.725	11.6411
915.618	0.638092
918.511	2.76901
921.403	25.5248
924.296	9.24313
927.189	8.28455
930.081	0.902359
932.974	14.7421
935.867	9.18022
938.76	8.39339
941.652	15.7674
944.545	9.67747
947.438	14.9048
950.33	12.1373
953.223	9.97405
956.116	13.6675
959.008	24.2528
961.901	11.8435
964.794	18.088
967.687	3.88618
970.579	8.19351
973.472	19.5316
976.365	16.7347
979.257	9.78937
982.15	9.50026
985.043	10.1655
987.935	25.0073
990.828	15.3561
993.721	23.5524
996.614	20.3722
999.506	4.32727
1002.4	13.7936
1005.29	26.491
1008.18	7.74115
1011.08	5.2415
1013.97	19.4745
1016.86	10.2303
1019.75	22.6065
1022.65	18.9575
1025.54	2.8208
1028.43	11.2758
1031.33	13.641
1034.22	13.9216
1037.11	14.0847
1040	12.1444
1042.9	9.70471
1045.79	9.42015
1048.68	3.3334
1051.58	1.97058
1054.47	14.3511
1057.36	7.44691
1060.25	11.7225
1063.15	8.5134
1066.04	9.07381
1068.93	0.934967
1071.82	3.99701
1074.72	15.7567
1077.61	4.22247
1080.5	0.510513
1083.39	9.69373
1086.29	11.9512
1089.18	4.41089
1092.07	2.74968
1094.96	16.4104
1097.86	11.9799
1100.75	11.3642
1103.64	12.6901
1106.54	13.2055
1109.43	13.4896
1112.32	14.6904
1115.21	8.36653
1118.11	16.3154
1121	5.38461
1123.89	8.83206
1126.79	11.1935
1129.68	7.43594
1132.57	12.6593
1135.46	13.0603
1138.36	9.33705
1141.25	7.7523
1144.14	8.87234
1147.03	20.3648
1149.93	15.3508
1152.82	6.62906
1155.71	18.4943
1158.61	13.4256
1161.5	6.5103
1164.39	19.109
1167.28	8.78853
1170.18	17.6432
1173.07	9.96388
1175.96	8.65581
1178.85	18.0679
1181.75	8.81705
1184.64	15.6773
1187.53	15.3501
1190.42	4.6615
1193.32	8.43986
1196.21	7.84415
1199.1	4.31491
1201.99	12.8491
1204.89	8.60319
1207.78	21.7001
1210.67	19.3818
1213.57	20.7204
1216.46	12.8604
1219.35	14.9697
1222.24	21.3038
1225.14	6.92058
1228.03	0.655014
1230.92	7.23596
1233.82	16.881
1236.71	21.4047
1239.6	12.535
1242.49	8.44733
1245.39	10.0246
1248.28	3.6544
1251.17	11.3062
1254.06	7.2816
1256.96	14.4287
1259.85	14.1778
1262.74	0.986511
1265.63	13.9863
1268.53	15.0544
1271.42	4.52936
1274.31	10.3997
1277.2	11.5698
