Measurement: Raman, 532 nm, unoriented, Raman Data Processed
Mineral: Zinkenite
Rruff sample: R070577
Ideal chemistry: Pb^2+^_9_Sb^3+^_22_S^2-^_42_
Locality: Jetty mine, near Anaconda, Deer Lodge County, Montana, USA
Source: James Shigley
Description: Gray metallic massive
Raman shift (cm-1)	intensity
134.6	0
137.975	13.5018
141.349	123.162
144.724	165.82
148.099	126.122
151.474	143.688
154.849	101.136
158.224	105.441
161.598	102.217
164.973	88.3517
168.348	42.9224
171.723	66.5408
175.098	4.73315
178.472	34.2698
181.847	10.0477
185.222	0.838318
188.597	6.32367
191.972	0.299255
195.346	16.7876
198.721	23.7157
202.096	63.5326
205.471	45.5082
208.846	71.4548
212.221	83.5942
215.595	99.4505
218.97	108.615
222.345	179.535
225.72	200.424
229.095	197.082
232.47	220.778
235.844	221.795
239.219	280.554
242.594	282.495
245.969	361.155
249.344	331.163
252.718	394.457
256.093	380.335
259.468	455.765
262.843	493.349
266.218	476.306
269.592	464.345
272.967	482.88
276.342	426.921
279.717	364.978
283.092	326.106
286.467	302.294
289.841	265.101
293.216	185.178
296.591	144.36
299.966	78.3554
303.341	67.2741
306.716	51.2007
310.09	37.418
313.465	44.1317
316.84	5.57233
320.215	11.8832
323.59	9.32642
326.964	27.449
330.339	42.5325
333.714	4.01544
337.089	16.2545
340.464	32.0773
343.839	59.421
347.213	48.8109
350.588	38.8265
353.963	53.6213
357.338	59.9817
360.713	15.1552
364.087	12.0809
367.462	4.39575
370.837	26.0384
374.212	21.8383
377.587	19.9179
380.962	20.3447
384.336	10.0406
387.711	20.2281
391.086	1.50635
394.461	30.7432
397.836	28.5618
401.21	27.4279
404.585	53.8041
407.96	37.5936
411.335	54.9553
414.71	46.5256
418.084	44.931
421.459	42.6263
424.834	53.1631
428.209	25.563
431.584	23.9984
434.959	34.5402
438.333	19.0894
441.708	30.6171
445.083	18.1678
448.458	7.40863
451.833	40.0555
455.207	36.0548
458.582	26.0657
461.957	27.916
465.332	33.7336
468.707	30.6236
472.082	19.7621
475.456	29.8124
478.831	13.9877
482.206	40.2083
485.581	2.72086
488.956	27.3221
492.33	15.4929
495.705	33.8084
499.08	44.6191
502.455	45.9623
505.83	27.2217
509.205	5.88223
512.579	27.8265
515.954	19.9337
519.329	23.5886
522.704	27.3251
526.079	7.46707
529.453	17.5999
532.828	0.55545
536.203	38.4315
539.578	23.6583
542.953	27.5826
546.328	19.3832
549.702	24.0901
553.077	36.6982
556.452	12.6703
559.827	15.5339
563.202	29.7652
566.577	36.5184
569.951	18.8554
573.326	36.022
576.701	26.0662
580.076	8.67114
583.451	34.7514
586.825	30.3377
590.2	21.9544
593.575	36.4459
596.95	11.6322
600.325	1.24527
603.699	46.3985
607.074	26.5421
610.449	12.9273
613.824	23.9635
617.199	24.7991
620.573	35.5091
623.948	6.50101
627.323	9.8978
630.698	22.625
634.073	10.9433
637.448	0.997955
640.822	15.1868
644.197	30.3135
647.572	6.00806
650.947	8.00305
654.322	10.0605
657.697	15.6332
661.071	13.4351
664.446	5.47772
667.821	19.8978
671.196	35.2553
674.571	49.5154
677.946	21.2807
681.32	7.24399
684.695	23.6977
688.07	13.6718
691.445	12.9872
694.82	2.04926
698.194	22.3654
701.569	18.8877
704.944	21.1852
708.319	39.2705
711.694	10.478
715.068	24.3663
718.443	5.85205
721.818	1.69244
725.193	28.1207
728.568	14.8026
731.943	4.97626
735.317	10.4616
738.692	24.7278
742.067	31.0876
745.442	40.761
748.817	41.1427
752.192	15.0893
755.566	14.8194
758.941	18.3399
762.316	0.122314
765.691	1.27704
769.066	17.073
772.44	20.6448
775.815	56.6693
779.19	17.8049
782.565	28.5111
785.94	20.6506
789.314	1.52039
792.689	32.0762
796.064	17.4246
799.439	9.05225
802.814	0.827057
806.188	27.7387
809.563	15.5909
812.938	27.1677
816.313	27.226
819.688	15.9044
823.063	20.5321
826.438	18.5708
829.812	24.0938
833.187	29.2954
836.562	6.47287
839.937	16.0296
843.312	19.7024
846.686	13.7803
850.061	23.9531
853.436	28.1416
856.811	21.3999
860.186	28.696
863.561	13.6902
866.935	24.852
870.31	25.5348
873.685	31.6928
877.06	31.4498
880.435	3.55344
883.809	7.71909
887.184	18.6446
890.559	20.1115
893.934	17.9296
897.309	7.60083
900.683	18.013
904.058	15.9614
907.433	29.1199
910.808	6.38419
914.183	16.503
917.558	12.9307
920.932	3.06134
924.307	3.35318
927.682	23.5125
931.057	44.0103
934.432	12.2062
937.807	8.2319
941.181	28.6813
944.556	10.1398
947.931	34.3516
951.306	11.7788
954.681	0.278748
958.055	25.0218
961.43	28.338
964.805	9.50607
968.18	23.4476
971.555	3.96161
974.929	17.3006
978.304	0.276581
981.679	26.7695
985.054	27.6229
988.429	10.7369
991.804	28.9066
995.178	37.8894
998.553	23.8415
1001.93	17.2974
1005.3	22.9025
1008.68	19.4294
1012.05	1.8114
1015.43	21.3106
1018.8	13.0965
1022.18	13.7725
1025.55	18.3042
1028.93	5.47925
1032.3	26.914
1035.68	5.45364
1039.05	33.2794
1042.43	5.20331
1045.8	14.5215
1049.17	10.8358
1052.55	17.8026
1055.92	9.05792
1059.3	30.8226
1062.67	18.8937
1066.05	2.23349
1069.42	18.4553
1072.8	37.6851
1076.17	52.0603
1079.55	12.562
1082.92	40.4512
1086.3	30.0918
1089.67	0.623657
1093.05	4.13385
1096.42	13.9061
1099.8	18.9049
1103.17	13.6166
1106.55	17.8163
1109.92	10.7865
1113.3	16.5357
1116.67	4.97195
1120.05	28.07
1123.42	6.01678
1126.8	16.7508
1130.17	8.88031
1133.55	17.6927
1136.92	20.0458
1140.3	14.7278
1143.67	19.5926
1147.05	16.8846
1150.42	19.7078
1153.8	21.02
1157.17	0.293152
1160.54	7.87604
1163.92	16.2079
1167.29	18.1379
1170.67	19.2373
1174.04	16.1017
1177.42	17.1085
1180.79	2.42413
1184.17	30.1063
1187.54	17.7384
1190.92	40.812
1194.29	29.1531
1197.67	19.0278
1201.04	27.2431
1204.42	27.4643
1207.79	23.9651
1211.17	12.0588
1214.54	8.8017
1217.92	21.2944
1221.29	4.97275
1224.67	41.3729
1228.04	14.5357
1231.42	15.1166
1234.79	38.7057
1238.16	44.4311
1241.54	27.8865
1244.91	17.0746
1248.29	10.3021
1251.66	28.8923
1255.04	10.098
1258.41	20.6327
1261.79	29.1191
1265.16	19.252
1268.54	24.6498
1271.91	23.0586
1275.29	37.0108
1278.66	2.97943
1282.04	27.847
1285.41	17.7373
1288.79	46.327
1292.16	0
