Measurement: Raman, 532 nm, unoriented, Raman Data Processed
Mineral: Zinnwaldite
Rruff sample: R040138
Ideal chemistry: K(Al,Fe,Li)_3_(Si,Al)_4_O_10_(OH)F
Locality: TÃ¸rdal, Telemark, Norway
Source: University of Arizona Mineral Museum
Description: Dark green mica book, polytype 1M
Measured chemistry: (K_0.96_Na_0.04_)(Al_0.35_Fe^2+^_0.29_Li_0.27_Mg_0.04_Mn_0.03_Ti_0.02_)_3_(Si_0.66_Al_0.34_)_4_O_10_((OH)_0.64_F_0.36_)_2_
Raman shift (cm-1)	intensity
151.59	0
154.965	13.5302
158.34	45.0067
161.715	38.3993
165.09	77.1517
168.464	130.163
171.839	167.272
175.214	194.611
178.589	221.874
181.964	213.662
185.339	223.526
188.713	246.87
192.088	214.412
195.463	221.932
198.838	163.209
202.213	149.888
205.587	90.8041
208.962	86.5211
212.337	56.616
215.712	16.0304
219.087	3.69348
222.462	8.09668
225.836	22.3889
229.211	24.9404
232.586	28.7212
235.961	2.4613
239.336	8.79114
242.71	1.96277
246.085	3.38074
249.46	18.0388
252.835	43.1119
256.21	48.8691
259.584	81.9232
262.959	100.351
266.334	67.6412
269.709	94.5078
273.084	83.4198
276.459	93.1394
279.833	82.907
283.208	65.9833
286.583	65.2111
289.958	41.0745
293.333	28.3658
296.707	20.3339
300.082	28.5727
303.457	3.51404
306.832	6.34595
310.207	0.994629
313.582	16.6456
316.956	12.8063
320.331	16.2405
323.706	38.0653
327.081	11.2356
330.456	26.2831
333.83	56.2124
337.205	20.9515
340.58	39.1226
343.955	32.8789
347.33	66.9828
350.705	67.8534
354.079	67.4691
357.454	93.7629
360.829	85.1471
364.204	81.4255
367.579	89.6594
370.954	105.86
374.328	102.963
377.703	114.119
381.078	144.52
384.453	136.85
387.828	134.645
391.202	134.225
394.577	194.429
397.952	194.631
401.327	199.19
404.702	176.748
408.077	171.372
411.451	176.895
414.826	148.467
418.201	113.862
421.576	105.736
424.951	112.234
428.325	60.6818
431.7	46.1808
435.075	40.1461
438.45	17.4056
441.825	11.434
445.2	11.2336
448.574	12.2116
451.949	16.1985
455.324	15.1079
458.699	19.8224
462.074	2.25354
465.448	27.7202
468.823	16.9364
472.198	49.819
475.573	2.49353
478.948	81.1185
482.322	84.035
485.697	77.8632
489.072	122.758
492.447	148.336
495.822	178.274
499.197	181.958
502.571	186.728
505.946	184.021
509.321	215.651
512.696	251.913
516.071	288.282
519.446	315.506
522.82	395.693
526.195	410.017
529.57	447.462
532.945	501.575
536.32	544.907
539.694	629.15
543.069	640.33
546.444	633.532
549.819	695.41
553.194	692.341
556.568	663.96
559.943	684.309
563.318	612.305
566.693	555.455
570.068	507.996
573.443	455.348
576.817	344.546
580.192	265.713
583.567	230.57
586.942	145.365
590.317	71.6199
593.692	57.9635
597.066	4.33032
600.441	18.8838
603.816	8.42236
607.191	14.0414
610.566	9.84766
613.94	32.4503
617.315	24.9774
620.69	20.1334
624.065	4.52112
627.44	7.86316
630.814	52.9697
634.189	40.0106
637.564	31.9949
640.939	40.2281
644.314	32.0703
647.689	64.0897
651.063	52.3348
654.438	112.754
657.813	122.221
661.188	175.874
664.563	180.964
667.938	186.754
671.312	274.452
674.687	294.392
678.062	316.486
681.437	321.432
684.812	353.949
688.186	284.704
691.561	239.637
694.936	260.714
698.311	228.37
701.686	296.187
705.061	259.836
708.435	317.827
711.81	326.659
715.185	341.045
718.56	327.626
721.935	318.25
725.309	287.344
728.684	299.628
732.059	287.692
735.434	277.633
738.809	320.757
742.183	321.919
745.558	320.64
748.933	392.235
752.308	424.437
755.683	430.088
759.058	516.582
762.432	504.602
765.807	482.107
769.182	490.652
772.557	521.978
775.932	494.632
779.307	474.014
782.681	426.089
786.056	377.519
789.431	265.059
792.806	250.814
796.181	200.427
799.555	115.809
802.93	59.4447
806.305	27.2684
809.68	8.05164
813.055	30.793
816.429	34.4928
819.804	26.7665
823.179	9.77588
826.554	2.03442
829.929	0.312012
833.304	0.026123
836.678	12.4131
840.053	35.6506
843.428	74.7325
846.803	82.9312
850.178	62.7385
853.553	100.457
856.927	106.845
860.302	94.8657
863.677	127.316
867.052	149.543
870.427	136.714
873.801	152.517
877.176	176.974
880.551	158.814
883.926	141.227
887.301	159.06
890.676	155.105
894.05	161.15
897.425	157.176
900.8	179.932
904.175	157.498
907.55	150.935
910.924	159.651
914.299	199.641
917.674	147.356
921.049	177.496
924.424	148.012
927.798	124.312
931.173	109.553
934.548	128.827
937.923	114.944
941.298	98.2716
944.673	88.3084
948.047	105.553
951.422	107.296
954.797	102.145
958.172	82.9141
961.547	78.7555
964.922	56.2526
968.296	90.6066
971.671	32.2955
975.046	30.5591
978.421	36.2955
981.796	30.2354
985.17	29.8276
988.545	37.0444
991.92	39.1431
995.295	2.24853
998.67	20.109
1002.04	2.43616
1005.42	5.78906
1008.79	5.54016
1012.17	2.73535
1015.54	9.32263
1018.92	8.82483
1022.29	21.5821
1025.67	16.5829
1029.04	1.25842
1032.42	22.0275
1035.79	52.7031
1039.17	58.8369
1042.54	84.2148
1045.92	87.9939
1049.29	83.1231
1052.67	73.8475
1056.04	87.1968
1059.42	130.344
1062.79	93.6179
1066.17	93.6229
1069.54	120.079
1072.92	148.686
1076.29	135.124
1079.66	154.202
1083.04	115.014
1086.41	145.347
1089.79	139.245
1093.16	122.689
1096.54	126.966
1099.91	132.594
1103.29	109.909
1106.66	108.492
1110.04	85.2798
1113.41	102.305
1116.79	66.6202
1120.16	59.1101
1123.54	22.363
1126.91	31.5265
1130.29	17.389
1133.66	19.8831
1137.04	24.5523
1140.41	18.7903
1143.79	25.6906
1147.16	29.0016
1150.54	0.78894
1153.91	8.07056
1157.29	34.6094
1160.66	17.4766
1164.04	7.06482
1167.41	2.23096
1170.79	2.03491
1174.16	4.60608
1177.54	18.4701
1180.91	35.264
1184.29	31.222
1187.66	39.3886
1191.03	27.2436
1194.41	19.3789
1197.78	19.0652
1201.16	10.2759
1204.53	36.7865
1207.91	43.3367
1211.28	1.99756
1214.66	25.9149
1218.03	51.3923
1221.41	30.8564
1224.78	35.5321
1228.16	58.1129
1231.53	40.464
1234.91	22.6372
1238.28	2.32031
1241.66	31.1997
1245.03	49.307
1248.41	23.478
1251.78	30.4945
1255.16	75.6531
1258.53	32.8267
1261.91	19.6514
1265.28	42.3856
1268.65	17.2334
1272.03	44.7542
1275.4	36.8915
1278.78	37.9273
1282.15	46.7443
1285.53	46.2003
1288.9	36.8385
1292.28	42.1835
1295.65	55.5812
1299.03	33.2563
1302.4	39.5896
1305.78	21.9354
1309.15	6.01917
1312.53	40.3301
