Measurement: Raman, 785 nm, unoriented, Raman Data Processed
Mineral: Zinnwaldite
Rruff sample: R040138
Ideal chemistry: K(Al,Fe,Li)_3_(Si,Al)_4_O_10_(OH)F
Locality: TÃ¸rdal, Telemark, Norway
Source: University of Arizona Mineral Museum
Description: Dark green mica book, polytype 1M
Measured chemistry: (K_0.96_Na_0.04_)(Al_0.35_Fe^2+^_0.29_Li_0.27_Mg_0.04_Mn_0.03_Ti_0.02_)_3_(Si_0.66_Al_0.34_)_4_O_10_((OH)_0.64_F_0.36_)_2_
Raman shift (cm-1)	intensity
162.964	0
165.856	42.5918
168.749	85.0721
171.642	108.516
174.534	105.825
177.427	73.8178
180.32	117.497
183.212	118.926
186.105	159.412
188.998	159.045
191.891	138.925
194.783	124.979
197.676	113.922
200.569	95.0602
203.461	100.018
206.354	61.2855
209.247	14.776
212.139	16.1243
215.032	20.6996
217.925	4.96582
220.818	21.9831
223.71	5.41577
226.603	13.8746
229.496	13.2699
232.388	18.4789
235.281	44.0279
238.174	14.1724
241.066	6.2594
243.959	26.746
246.852	17.3473
249.745	22.8307
252.637	73.79
255.53	64.8556
258.423	83.9386
261.315	101.075
264.208	113.319
267.101	117.503
269.993	78.0123
272.886	115.678
275.779	97.0503
278.672	75.8723
281.564	75.0664
284.457	80.5255
287.35	65.6628
290.242	64.5353
293.135	54.8374
296.028	21.3679
298.921	19.0924
301.813	35.2527
304.706	7.43774
307.599	24.0154
310.491	2.67407
313.384	4.05286
316.277	19.8381
319.169	25.6796
322.062	3.08374
324.955	4.41199
327.847	39.3582
330.74	17.8987
333.633	23.8776
336.526	38.3833
339.418	16.093
342.311	20.827
345.204	36.4037
348.096	26.7841
350.989	61.6426
353.882	70.354
356.774	48.9982
359.667	77.8529
362.56	51.9766
365.452	70.7435
368.345	60.942
371.238	82.5797
374.131	61.3456
377.023	77.9651
379.916	91.8339
382.809	39.9137
385.701	78.5541
388.594	72.3008
391.487	63.0926
394.38	98.2493
397.272	89.5617
400.165	100.074
403.058	136.28
405.95	122.51
408.843	131.363
411.736	85.5623
414.628	119.096
417.521	72.0666
420.414	104.805
423.307	52.6017
426.199	66.1001
429.092	83.2508
431.985	48.5309
434.877	17.7927
437.77	56.0372
440.663	14.3811
443.555	10.3174
446.448	4.74866
449.341	14.8335
452.234	12.6065
455.126	38.6577
458.019	14.2294
460.912	18.2383
463.804	27.0944
466.697	15.3005
469.59	32.6448
472.483	44.3833
475.375	55.7384
478.268	89.4106
481.161	84.9811
484.053	97.2175
486.946	160.302
489.839	184.015
492.731	191.924
495.624	219.884
498.517	254.014
501.409	285.746
504.302	329.997
507.195	344.671
510.088	357.95
512.98	424.336
515.873	438.321
518.766	467.397
521.658	524.713
524.551	543.366
527.444	525.947
530.337	585.933
533.229	586.663
536.122	559.473
539.015	538.725
541.907	537.091
544.8	500.472
547.693	489.494
550.585	469.972
553.478	437.618
556.371	437.231
559.263	356.85
562.156	309.834
565.049	243.958
567.942	235.991
570.834	162.552
573.727	158.402
576.62	116.822
579.512	82.4568
582.405	81.5945
585.298	77.323
588.19	69.2317
591.083	1.49206
593.976	37.6316
596.869	6.4314
599.761	16.0443
602.654	1.80029
605.547	2.29419
608.439	11.5872
611.332	14.8237
614.225	0.979492
617.117	0.432007
620.01	12.9358
622.903	17.7006
625.795	13.9353
628.688	51.0608
631.581	15.0546
634.474	24.5584
637.366	35.7167
640.259	57.3669
643.152	52.1843
646.044	57.2352
648.937	67.434
651.83	91.9255
654.722	46.6655
657.615	51.8744
660.508	33.1869
663.401	74.5746
666.293	87.7775
669.186	112.641
672.079	127.065
674.971	137.607
677.864	97.9334
680.757	133.909
683.649	130.756
686.542	127.62
689.435	80.4476
692.328	76.5109
695.22	106.783
698.113	38.0066
701.006	70.3109
703.898	90.5256
706.791	53.9969
709.684	48.3431
712.577	57.2728
715.469	90.4578
718.362	88.3895
721.255	97.8084
724.147	90.8048
727.04	96.8279
729.933	79.9312
732.825	75.4656
735.718	106.332
738.611	96.2571
741.504	105.897
744.396	122.917
747.289	75.677
750.182	114.338
753.074	107.553
755.967	173.593
758.86	157.154
761.752	128.079
764.645	153.674
767.538	177.126
770.431	167.957
773.323	127.486
776.216	129.295
779.109	146.782
782.001	108.474
784.894	113.904
787.787	117.959
790.679	58.0355
793.572	56.9926
796.465	35.8961
799.357	4.04333
802.25	12.4283
805.143	10.8983
808.036	8.7843
810.928	25.2157
813.821	15.5207
816.714	6.69568
819.606	7.49854
822.499	22.3025
825.392	4.29822
828.284	9.95142
831.177	17.5465
834.07	6.69812
836.963	9.99854
839.855	20.8407
842.748	15.6381
845.641	18.0456
848.533	43.0778
851.426	23.1963
854.319	65.5617
857.212	38.6603
860.104	69.5363
862.997	38.4984
865.89	90.4596
868.782	65.9158
871.675	38.5517
874.568	41.8806
877.46	73.632
880.353	59.2364
883.246	69.1586
886.139	83.125
889.031	64.4642
891.924	77.7161
894.817	99.8649
897.709	68.7066
900.602	100.768
903.495	67.9913
906.388	88.2396
909.28	88.4714
912.173	50.045
915.066	69.7661
917.958	69.2841
920.851	55.3695
923.744	70.3666
926.636	54.0014
929.529	79.0482
932.422	56.9503
935.314	47.0679
938.207	39.3196
941.1	29.2828
943.993	61.5996
946.885	35.8187
949.778	20.5474
952.671	28.2554
955.563	44.7421
958.456	17.1407
961.349	34.0696
964.241	30.756
967.134	13.0734
970.027	26.3311
972.92	29.953
975.812	35.2856
978.705	35.3247
981.598	39.1754
984.49	29.2176
987.383	6.24805
990.276	23.0186
993.168	20.0868
996.061	46.6468
998.954	12.2794
1001.85	29.4564
1004.74	7.43597
1007.63	11.4787
1010.52	17.4263
1013.42	8.86078
1016.31	30.9348
1019.2	4.42316
1022.1	38.6022
1024.99	11.6791
1027.88	20.673
1030.77	27.3668
1033.67	63.0223
1036.56	9.61115
1039.45	32.6507
1042.34	52.1469
1045.24	23.2924
1048.13	35.6673
1051.02	28.1816
1053.91	34.6753
1056.81	44.1945
1059.7	47.9907
1062.59	1.90698
1065.49	33.6601
1068.38	77.2833
1071.27	34.7975
1074.16	48.8612
1077.06	60.8995
1079.95	79.0449
1082.84	67.0557
1085.73	64.9128
1088.63	60.4601
1091.52	61.7446
1094.41	45.0557
1097.31	62.6285
1100.2	24.9135
1103.09	36.8696
1105.98	42.1175
1108.88	45.902
1111.77	54.831
1114.66	11.7506
1117.56	40.7379
1120.45	37.9899
1123.34	5.0957
1126.23	22.1104
1129.12	13.2762
1132.02	21.7965
1134.91	4.46277
1137.8	59.6312
1140.7	8.08533
1143.59	0.820435
1146.48	14.4953
1149.37	41.9116
1152.27	10.1773
1155.16	36.7565
1158.05	2.68774
1160.94	34.27
1163.84	9.98859
1166.73	22.1221
1169.62	15.946
1172.52	33.5732
1175.41	24.1031
1178.3	30.2987
1181.19	24.2392
1184.09	5.86072
1186.98	9.45135
1189.87	14.8474
1192.77	53.9169
1195.66	38.7315
1198.55	35.9487
1201.44	49.0717
1204.34	28.7483
1207.23	49.1771
1210.12	12.6863
1213.01	36.8025
1215.91	10.3386
1218.8	24.6335
1221.69	19.8481
1224.58	13.6417
1227.48	31.7961
1230.37	10.251
1233.26	16.6896
1236.15	20.5574
1239.05	27.2442
1241.94	19.2223
