Measurement: Raman, 780 nm, unoriented, Raman Data Processed
Mineral: Zircon
Rruff sample: R150083
Ideal chemistry: Zr^4+^SiO_4_
Locality: unknown
Source: Michael Scott
Description: Green tetragonal prismatic crystal
Raman shift (cm-1)	intensity
101.684	0
105.059	11.5415
108.434	1.55127
111.809	0.023926
115.184	18.3882
118.558	41.1753
121.933	77.0952
125.308	112.251
128.683	152.782
132.058	202.19
135.433	248.327
138.807	313.254
142.182	369.811
145.557	407.01
148.932	458.769
152.307	497.752
155.681	540.004
159.056	567.76
162.431	599.593
165.806	616.394
169.181	635.788
172.555	656.904
175.93	663.359
179.305	685.646
182.68	714.101
186.055	725.082
189.43	743.65
192.804	742.502
196.179	761.435
199.554	779.977
202.929	785.389
206.304	769.152
209.678	721.23
213.053	695.722
216.428	688.09
219.803	657.106
223.178	615.13
226.553	560.1
229.927	505.696
233.302	449.441
236.677	405.892
240.052	355.573
243.427	304.305
246.801	266.236
250.176	218.894
253.551	155.67
256.926	118.153
260.301	95.3989
263.675	57.1382
267.05	28.8472
270.425	11.1362
273.8	3.94727
277.175	6.40967
280.55	27.7837
283.924	35.9751
287.299	35.5977
290.674	25.9492
294.049	12.27
297.424	9.90283
300.798	24.5552
304.173	35.9297
307.548	63.5679
310.923	79.9453
314.298	113.084
317.673	153.782
321.047	180.982
324.422	219.89
327.797	269.522
331.172	310.34
334.547	362.948
337.921	416.58
341.296	460.46
344.671	497.853
348.046	526.839
351.421	531.701
354.796	533.367
358.17	508.418
361.545	444.606
364.92	384.242
368.295	349.636
371.67	301.342
375.044	270.258
378.419	246.935
381.794	224.915
385.169	212.971
388.544	178.153
391.918	167.477
395.293	145.085
398.668	123.29
402.043	104.298
405.418	99.9058
408.793	80.3003
412.167	72.5947
415.542	76.0112
418.917	79.4424
422.292	103.61
425.667	127.319
429.041	147.533
432.416	178.113
435.791	175.203
439.166	165.625
442.541	135.663
445.915	105.717
449.29	70.3643
452.665	50.2947
456.04	43.3852
459.415	26.5764
462.789	13.7041
466.164	13.7485
469.539	9.46509
472.914	8.26611
476.289	8.60571
479.664	11.7698
483.038	5.60962
486.413	4.89258
489.788	2.29053
493.163	6.73975
496.538	1.26269
499.913	2.92993
503.287	2.21753
506.662	2.39307
510.037	2.62109
513.412	10.0523
516.787	9.42896
520.161	8.77148
523.536	2.31372
526.911	14.491
530.286	11.7668
533.661	16.6267
537.035	13.6155
540.41	5.71021
543.785	9.80273
547.16	1.9104
550.535	10.4504
553.909	3.93848
557.284	1.60938
560.659	10.1975
564.034	13.3892
567.409	4.86572
570.784	7.61914
574.158	15.0945
577.533	15.8794
580.908	20.2251
584.283	8.34546
587.658	14.0332
591.033	13.3242
594.407	13.5269
597.782	14.0037
601.157	21.037
604.532	17.0142
607.907	13.4227
611.281	8.02478
614.656	5.13831
618.031	0.090332
621.406	1.1311
624.781	3.46106
628.155	3.12378
631.53	3.41296
634.905	4.67822
638.28	7.82581
641.655	2.2113
645.029	0.177368
648.404	4.95618
651.779	4.34265
655.154	3.50684
658.529	14.3117
661.904	12.8844
665.278	13.2935
668.653	18.5614
672.028	15.7887
675.403	18.8599
678.778	17.5475
682.153	18.2064
685.527	15.7887
688.902	18.5418
692.277	22.1863
695.652	17.9753
699.027	21.1921
702.401	20.0748
705.776	21.9812
709.151	25.3527
712.526	21.6655
715.901	23.2862
719.275	25.6125
722.65	17.8448
726.025	16.7406
729.4	15.7578
732.775	15.3796
736.149	17.5129
739.524	12.3252
742.899	9.73779
746.274	5.51672
749.649	9.41272
753.024	6.74951
756.398	5.66077
759.773	3.62122
763.148	1.39179
766.523	2.4447
769.898	0.19397
773.273	5.55225
776.647	2.88989
780.022	0.42749
783.397	3.16772
786.772	0.68689
790.146	2.43756
793.521	2.83807
796.896	2.42041
800.271	4.02447
803.646	0.195801
807.021	1.81207
810.395	2.00854
813.77	1.11157
817.145	0.848816
820.52	0.207336
823.895	2.91644
827.269	2.42328
830.644	3.08368
834.019	1.78638
837.394	2.34204
840.769	2.82397
844.144	3.4552
847.518	3.44269
850.893	1.53168
854.268	4.01856
857.643	4.04724
861.018	4.86832
864.393	5.09338
867.767	3.83493
871.142	5.67032
874.517	3.38062
877.892	2.49081
881.266	1.36545
884.641	3.25497
888.016	3.04163
891.391	1.79187
894.766	1.07159
898.141	3.2756
901.515	0.591278
904.89	0.34137
908.265	0.179199
911.64	1.22418
915.015	0.976868
918.389	0.843628
921.764	0.041748
925.139	0.031281
928.514	0.192993
931.889	0.929718
935.264	2.76498
938.638	6.1062
942.013	6.54675
945.388	7.41287
948.763	9.06372
952.138	12.3283
955.512	17.398
958.887	22.7934
962.262	30.23
965.637	37.7015
969.012	47.2171
972.386	53.7206
975.761	55.6082
979.136	55.8763
982.511	63.0184
985.886	75.1606
989.261	99.9901
992.635	133.027
996.01	173.887
999.385	212.572
1002.76	237.237
1006.13	229.091
1009.51	190.51
1012.88	140.975
1016.26	102.245
1019.63	71.1546
1023.01	48.5323
1026.38	36.0356
1029.76	22.5572
1033.13	14.4152
1036.51	11.3229
1039.88	20.9335
1043.26	5.94162
1046.63	3.09569
1050.01	1.82504
1053.38	1.13238
1056.76	0.588974
1060.13	0.23056
1063.51	0.611557
1066.88	0.887405
1070.26	1.46445
1073.63	0.421463
1077.01	0.415588
1080.38	0.434128
1083.76	0.651398
1087.13	0.838669
1090.51	0.215302
1093.88	2.28018
1097.26	1.51416
1100.63	1.65306
1104	3.59653
1107.38	1.59963
1110.75	1.93928
1114.13	1.70216
1117.5	1.63754
1120.88	3.70958
1124.25	1.87283
1127.63	1.2836
1131	1.85382
1134.38	1.54788
1137.75	1.8195
1141.13	1.54205
1144.5	1.75099
1147.88	1.32536
1151.25	2.49255
1154.63	0.795807
1158	1.46663
1161.38	2.39189
1164.75	0.519913
1168.13	2.35013
1171.5	3.07207
1174.88	2.82089
1178.25	2.2905
1181.62	3.06308
1185	1.38652
1188.38	2.52339
1191.75	1.10005
1195.12	1.59802
1198.5	2.91103
1201.87	2.36548
1205.25	1.30676
1208.62	2.18114
1212	2.80745
1215.37	1.54996
1218.75	1.40175
1222.12	0.85733
1225.5	0.935303
1228.87	0.40538
1232.25	0.600906
1235.62	1.45639
1239	0.220367
1242.37	1.89641
1245.75	0.979095
1249.12	2.13312
1252.5	1.52539
1255.87	2.62717
1259.25	1.34645
1262.62	2.42653
1265.99	1.00893
1269.37	2.79692
1272.74	1.2644
1276.12	0.17067
1279.49	1.92427
1282.87	2.80276
