Measurement: Raman, 780 nm, unoriented, Raman Data Processed
Mineral: Zirkelite
Rruff sample: R080083
Ideal chemistry: (Ti^4+^,Ca,Zr^4+^)O_2-x_
Locality: Jacupiranga mine, Cajati, SÃ£o Paulo, Brazil
Source: Luiz Menezes
Description: Black crystals
Raman shift (cm-1)	intensity
146.52	0
149.413	0.111496
152.306	0.20903
155.199	0.374496
158.091	0.773483
160.984	1.06599
163.877	1.50993
166.769	2.12254
169.662	2.13846
172.555	1.01308
175.447	1.78882
178.34	1.92343
181.233	2.27187
184.126	1.7879
187.018	1.26765
189.911	1.03528
192.804	2.85153
195.696	1.50386
198.589	0.404114
201.482	0.770676
204.375	0.851929
207.267	1.24335
210.16	0.380127
213.053	0.824387
215.945	0.502563
218.838	0.824539
221.731	1.79724
224.623	1.25581
227.516	2.53746
230.409	1.80058
233.302	1.79674
236.194	1.93207
239.087	1.74667
241.98	2.47963
244.872	1.07544
247.765	3.25166
250.658	2.45449
253.55	1.90825
256.443	2.69145
259.336	1.41029
262.228	2.47086
265.121	1.61406
268.014	2.08824
270.907	2.08633
273.799	1.74703
276.692	1.63081
279.585	0.825958
282.477	0.95813
285.37	0.882553
288.263	0.374725
291.156	1.59654
294.048	0.734329
296.941	1.29462
299.834	1.16795
302.726	0.829071
305.619	0.989487
308.512	0.318314
311.404	0.303772
314.297	0.545197
317.19	0.277145
320.082	1.58792
322.975	1.63806
325.868	1.34668
328.761	1.74927
331.653	0.682961
334.546	0.440369
337.439	1.10662
340.331	1.24487
343.224	1.9712
346.117	1.121
349.01	1.21766
351.902	0.483856
354.795	1.22812
357.688	1.28072
360.58	1.57757
363.473	1.46758
366.366	0.654968
369.258	1.43397
372.151	1.443
375.044	0.474808
377.937	0.049911
380.829	0.244011
383.722	0.268593
386.615	0.686813
389.507	0.257004
392.4	0.511696
395.293	0.261711
398.185	0.030746
401.078	0.585678
403.971	0.286331
406.863	0.179489
409.756	0.871887
412.649	1.27268
415.542	0.981102
418.434	0.648323
421.327	1.51626
424.22	0.715851
427.112	0.46347
430.005	0.899887
432.898	0.041107
435.791	1.55838
438.683	0.415237
441.576	0.030701
444.469	1.24679
447.361	1.19121
450.254	1.40184
453.147	0.894936
456.039	0.380226
458.932	0.686317
461.825	0.550743
464.717	1.42589
467.61	0.417023
470.503	0.347145
473.396	0.785812
476.288	0.613861
479.181	1.18323
482.074	0.788277
484.966	1.35858
487.859	1.45176
490.752	0.977905
493.644	0.297607
496.537	0.48362
499.43	0.122849
502.323	0.921046
505.215	-0.050069
508.108	0.877263
511.001	0.933481
513.893	0.972012
516.786	0.419222
519.679	0.693373
522.572	0.110481
525.464	0.235771
528.357	0.394768
531.25	0.430321
534.142	0.50518
537.035	0.455353
539.928	0.756355
542.82	0.657173
545.713	0.494423
548.606	1.02061
551.499	0.467033
554.391	0.692955
557.284	0.802406
560.177	1.38961
563.069	0.301086
565.962	0.44548
568.855	1.2798
571.747	1.30946
574.64	0.874794
577.533	0.820251
580.426	1.16731
583.318	1.39382
586.211	1.57173
589.104	2.26693
591.996	1.87945
594.889	1.39241
597.782	1.06197
600.674	2.09847
603.567	1.97298
606.46	1.86138
609.352	2.34185
612.245	2.07504
615.138	1.11609
618.03	1.40891
620.923	2.14202
623.816	1.23994
626.709	1.08224
629.601	0.981491
632.494	2.55289
635.387	1.5189
638.279	0.879776
641.172	0.9347
644.065	0.864151
646.957	0.477814
649.85	0.935829
652.743	1.35524
655.636	0.949188
658.528	0.667854
661.421	1.4848
664.314	0.460548
667.206	0.399048
670.099	0.216362
672.992	0.192696
675.885	0.447067
678.777	0.301636
681.67	1.12759
684.563	0.041794
687.455	0.588242
690.348	0.325348
693.241	0.119133
696.133	0.778999
699.026	0.474503
701.919	1.07469
704.812	0.537186
707.704	0.691002
710.597	1.17982
713.49	1.48706
716.382	2.05563
719.275	1.68875
722.168	2.01624
725.06	0.685677
727.953	1.27324
730.846	2.02388
733.739	2.04198
736.631	2.10642
739.524	2.5656
742.417	3.46446
745.309	1.7956
748.202	2.99023
751.095	2.62294
753.987	2.42629
756.88	2.52409
759.773	3.63671
762.665	3.27686
765.558	2.88889
768.451	2.35029
771.344	2.61317
774.236	3.7553
777.129	3.7525
780.022	4.41328
782.914	4.76702
785.807	4.61227
788.7	4.24103
791.592	4.04871
794.485	3.8596
797.378	4.04829
800.271	4.22821
803.163	4.38159
806.056	3.87787
808.949	4.805
811.841	4.27969
814.734	4.11508
817.627	3.61789
820.519	3.6629
823.412	4.53219
826.305	3.77795
829.198	3.79031
832.09	3.75893
834.983	3.54727
837.876	3.28226
840.768	2.79296
843.661	3.49134
846.554	2.49028
849.447	1.98956
852.339	2.0803
855.232	2.08268
858.125	1.82268
861.017	1.31197
863.91	2.69522
866.803	1.24008
869.695	0.76606
872.588	1.08223
875.481	0.494282
878.374	0.156113
881.266	0.545231
884.159	0.302608
887.052	0.448341
889.944	1.08332
892.837	0.300175
895.73	0.145302
898.622	0.713181
901.515	0.658657
904.408	0.322853
907.301	0.369041
910.193	0.165527
913.086	0.223866
915.979	0.768932
918.871	0.094032
921.764	0.392883
924.657	0.107498
927.549	0.901329
930.442	1.15815
933.335	0.788189
936.227	1.08267
939.12	1.80036
942.013	1.08389
944.906	2.20186
947.798	1.79354
950.691	1.48146
953.584	1.4176
956.476	1.62388
959.369	1.47758
962.262	1.98297
965.154	1.36449
968.047	1.78554
970.94	1.62836
973.833	1.44093
976.725	1.58848
979.618	1.10002
982.511	0.855497
985.403	1.30918
988.296	0.872524
991.189	1.53724
994.082	1.00565
996.974	0.950466
999.867	1.26033
1002.76	0.679388
1005.65	1.01875
1008.54	1.01001
1011.44	0.416391
1014.33	0.465935
1017.22	1.00945
1020.12	0.860754
1023.01	0.373762
1025.9	1.04009
1028.79	0.643749
1031.69	1.11051
1034.58	0.655638
1037.47	0.212093
1040.37	0.987625
1043.26	0.427811
1046.15	0.695154
1049.04	0.354141
1051.94	0.793879
1054.83	0.985115
1057.72	0.702044
1060.61	0.697105
1063.51	0.570604
1066.4	0.515699
1069.29	0.514103
1072.18	0.196354
1075.08	0.250956
1077.97	0.727484
1080.86	0.367668
1083.76	0.578333
1086.65	0.960402
1089.54	0.526806
1092.43	0.209045
1095.33	0.812222
1098.22	0.214857
1101.11	0.145889
1104	0.216158
1106.9	0.143072
1109.79	0.60825
1112.68	0.631788
1115.58	0.300451
1118.47	0.18582
1121.36	0.327921
1124.25	1.1466
1127.15	0.73102
1130.04	0.486824
1132.93	0.596663
1135.82	0.627022
1138.72	0.475103
1141.61	0.101343
1144.5	1.7085
1147.39	0.633787
1150.29	0.484043
1153.18	0.958305
1156.07	0.783436
1158.96	0.400408
1161.86	0.515688
1164.75	0.744425
1167.64	0.695946
1170.54	0.98699
1173.43	0.93174
1176.32	0.491392
1179.21	0.834503
1182.11	0.050987
1185	1.06477
1187.89	1.08839
1190.79	1.19596
1193.68	0.751474
1196.57	0.900251
1199.46	0.340845
1202.36	0.667477
1205.25	0.399698
1208.14	1.24288
1211.03	0.286715
1213.93	0.891861
1216.82	1.00937
1219.71	0.336836
1222.61	0.283728
1225.5	0.312101
1228.39	0.225435
1231.28	0.624371
1234.18	0.093691
1237.07	0.633408
1239.96	0.309423
1242.85	0.502851
1245.75	0.850506
1248.64	0.159206
1251.53	0.615461
1254.42	0.80212
1257.32	0.781296
1260.21	0.353304
1263.1	0.48103
1265.99	0.827877
1268.89	0.106485
1271.78	0.123505
1274.67	0.877287
1277.57	0.532284
1280.46	1.03548
1283.35	0.463797
1286.24	0
