Measurement: Raman, 532 nm, unoriented, Raman Data Processed
Mineral: Zirkelite
Rruff sample: R080083
Ideal chemistry: (Ti^4+^,Ca,Zr^4+^)O_2-x_
Locality: Jacupiranga mine, Cajati, SÃ£o Paulo, Brazil
Source: Luiz Menezes
Description: Black crystals
Raman shift (cm-1)	intensity
147.797	0
151.172	2.85969
154.547	6.07796
157.921	2.09819
161.296	3.86195
164.671	3.01953
168.046	3.34049
171.421	4.36169
174.796	2.38322
178.17	3.96457
181.545	3.49275
184.92	3.03694
188.295	3.36307
191.67	2.09595
195.044	1.83487
198.419	0.655014
201.794	1.50635
205.169	0.006027
208.544	0.88765
211.918	1.45284
215.293	0.764282
218.668	1.71007
222.043	0.411575
225.418	1.71971
228.792	0.396133
232.167	1.91542
235.542	2.30643
238.917	2.37723
242.292	3.57462
245.667	3.42619
249.041	3.95551
252.416	3.1134
255.791	3.63669
259.166	4.33662
262.541	5.1438
265.916	4.33847
269.29	3.99327
272.665	3.3128
276.04	4.50485
279.415	3.79724
282.79	3.68393
286.164	3.15622
289.539	3.43794
292.914	3.31958
296.289	3.73444
299.664	3.79349
303.038	2.7579
306.413	3.11076
309.788	2.35437
313.163	2.4496
316.538	3.786
319.913	1.04623
323.287	2.90881
326.662	2.68352
330.037	0.776047
333.412	1.34296
336.787	1.1217
340.161	0.467194
343.536	0.757996
346.911	1.5789
350.286	0.825974
353.661	2.983
357.036	1.04468
360.41	0.933578
363.785	1.01631
367.16	1.20007
370.535	0.578217
373.91	0.794601
377.284	0.35022
380.659	1.03455
384.034	1.66486
387.409	1.31622
390.784	0.118591
394.159	1.31001
397.533	0.415375
400.908	1.34213
404.283	0.930283
407.658	0.911728
411.033	1.41087
414.407	0.21524
417.782	1.15723
421.157	1.32718
424.532	0.780579
427.907	1.67986
431.281	1.40796
434.656	1.90523
438.031	1.21925
441.406	0.044846
444.781	1.52086
448.156	1.76576
451.53	0.167847
454.905	1.45596
458.28	0.427124
461.655	1.54282
465.03	0.921555
468.404	0.649933
471.779	0.778061
475.154	0.965118
478.529	0.662582
481.904	1.7954
485.279	1.058
488.653	1.31906
492.028	0.76973
495.403	0.346481
498.778	1.44565
502.153	0.369247
505.527	1.21526
508.902	0.698685
512.277	1.45766
515.652	1.15469
519.027	0.135803
522.402	0.928482
525.776	0.210449
529.151	0.403412
532.526	1.36803
535.901	0.23645
539.276	1.12573
542.65	1.6216
546.025	1.26327
549.4	2.0556
552.775	1.76054
556.15	1.51862
559.525	1.57083
562.899	2.70837
566.274	2.63019
569.649	1.11887
573.024	3.0192
576.399	2.27455
579.774	2.476
583.148	2.93563
586.523	3.19574
589.898	2.9959
593.273	3.80194
596.648	3.61093
600.022	4.22263
603.397	4.64243
606.772	3.6425
610.147	3.37047
613.522	3.1304
616.896	3.39035
620.271	3.11002
623.646	2.43852
627.021	3.8921
630.396	2.54358
633.77	3.51177
637.145	1.96069
640.52	2.50883
643.895	1.11148
647.27	0.112381
650.645	0.567673
654.019	0.08223
657.394	0.404831
660.769	0.731339
664.144	0.496597
667.519	0.650162
670.894	0.283463
674.268	1.33414
677.643	0.487045
681.018	0.496857
684.393	0.284561
687.768	1.03639
691.142	0.038757
694.517	0.456924
697.892	1.40218
701.267	1.5509
704.642	0.824173
708.016	1.45607
711.391	2.72592
714.766	1.4946
718.141	3.18408
721.516	3.73491
724.891	4.17857
728.265	5.38675
731.64	3.71196
735.015	6.16086
738.39	5.63666
741.765	6.97836
745.139	7.69785
748.514	7.82297
751.889	8.15349
755.264	9.39418
758.639	9.17206
762.014	11.012
765.388	10.5869
768.763	11.8596
772.138	11.495
775.513	12.0702
778.888	11.6193
782.263	12.2109
785.637	12.5268
789.012	12.9099
792.387	12.7658
795.762	13.0535
799.136	12.2212
802.511	12.3159
805.886	12.4455
809.261	12.9067
812.636	12.0408
816.011	11.8101
819.385	10.8408
822.76	11.2842
826.135	9.85908
829.51	9.10642
832.885	8.24168
836.26	8.34843
839.634	8.63139
843.009	7.96078
846.384	6.29281
849.759	6.67507
853.134	5.97086
856.508	4.84578
859.883	6.31918
863.258	2.96941
866.633	2.90417
870.008	2.22841
873.383	1.92209
876.757	0.377701
880.132	0.693062
883.507	0.487022
886.882	0.961624
890.257	0.345528
893.631	0.406464
897.006	0.715706
900.381	0.556084
903.756	0.576172
907.131	0.91169
910.505	0.264984
913.88	0.812561
917.255	0.127167
920.63	1.70711
924.005	2.37824
927.38	2.74197
930.754	2.34856
934.129	2.13721
937.504	3.44351
940.879	4.91256
944.254	4.24464
947.629	4.32779
951.003	3.5173
954.378	4.30523
957.753	3.9506
961.128	3.97803
964.503	3.94064
967.877	2.98965
971.252	3.02601
974.627	3.0172
978.002	2.83283
981.377	3.0396
984.751	3.14109
988.126	2.99451
991.501	2.72552
994.876	1.94536
998.251	1.79076
1001.63	1.54596
1005	1.59895
1008.38	2.1584
1011.75	1.98592
1015.12	1.24626
1018.5	1.94887
1021.87	1.28518
1025.25	2.12488
1028.62	1.3518
1032	1.27214
1035.37	0.449848
1038.75	1.19081
1042.12	1.49405
1045.5	1.6678
1048.87	0.738247
1052.25	0.465988
1055.62	1.2223
1059	1.07937
1062.37	0.669666
1065.75	1.07209
1069.12	0.691505
1072.5	1.13989
1075.87	0.369427
1079.25	0.645378
1082.62	0.167191
1086	0.443214
1089.37	0.585697
1092.75	0.194336
1096.12	0.354897
1099.49	0.824543
1102.87	0.606289
1106.24	0.550781
1109.62	0.852669
1112.99	0.567524
1116.37	0.306732
1119.74	0.605534
1123.12	0.116856
1126.49	0.7271
1129.87	0.636745
1133.24	0.582764
1136.62	0.571636
1139.99	0.281792
1143.37	0.960728
1146.74	0.237583
1150.12	0.231285
1153.49	0.359398
1156.87	0.015884
1160.24	0.448204
1163.62	0.607216
1166.99	0.940666
1170.37	1.19099
1173.74	1.05183
1177.12	1.51889
1180.49	1.17111
1183.87	0.565533
1187.24	1.38169
1190.62	0.612171
1193.99	0.994926
1197.37	0.469101
1200.74	0.769028
1204.12	1.46125
1207.49	1.74897
1210.86	0.413998
1214.24	1.37401
1217.61	0.556358
1220.99	0.063026
1224.36	1.47113
1227.74	0.852043
1231.11	1.2625
1234.49	1.25457
1237.86	0.647381
1241.24	1.26776
1244.61	0.365295
1247.99	0.381794
1251.36	0.590733
1254.74	1.4887
1258.11	0.764297
1261.49	0.471668
1264.86	1.12779
1268.24	0.496796
1271.61	0.77737
1274.99	0.866177
1278.36	0.542404
1281.73	0.02829
1285.11	0.298683
1288.48	0.388481
1291.86	0.477058
1295.23	0.899612
1298.61	0.338352
1301.98	0.142014
