Measurement: Raman, 532 nm, unoriented, Raman Data Processed
Mineral: Zirkelite
Rruff sample: R060540
Ideal chemistry: (Ti^4+^,Ca,Zr^4+^)O_2-x_
Locality: Palabora Open Pit, Phalaborwa, Transvaal, Republic of South Africa
Source: Michael Scott
Description: Black flattened octahedra, metamict
Measured chemistry: (Ti_0.42_Zr_0.28_Ca_0.20_Fe^3+^_0.08_Th_0.02_)_Î£=1_O_1.76_; trace amounts of Ce, Pb, U
Raman shift (cm-1)	intensity
119.674	0
123.049	3.36206
126.424	35.1829
129.799	43.9233
133.174	62.6211
136.548	68.9717
139.923	100.792
143.298	112.854
146.673	108.456
150.048	106.71
153.423	108.677
156.797	105.488
160.172	91.0798
163.547	105.155
166.922	110.099
170.297	112.29
173.672	116.187
177.046	111.001
180.421	99.3213
183.796	94.6777
187.171	88.3298
190.546	69.3931
193.92	56.76
197.295	47.6841
200.67	36.521
204.045	28.7331
207.42	15.7595
210.794	8.96704
214.169	8.92969
217.544	16.9573
220.919	9.41528
224.294	2.25317
227.669	1.01538
231.043	11.8787
234.418	6.97778
237.793	3.82471
241.168	9.11523
244.543	10.956
247.917	13.1043
251.292	10.1196
254.667	18.6941
258.042	31.136
261.417	41.8176
264.792	47.678
268.166	60.8525
271.541	66.822
274.916	81.4465
278.291	87.3643
281.666	94.6721
285.041	91.5752
288.415	97.4109
291.79	100.227
295.165	90.8923
298.54	92.3791
301.915	80.6592
305.289	82.0625
308.664	90.7197
312.039	85.7407
315.414	78.468
318.789	68.533
322.163	62.9407
325.538	60.0234
328.913	53.3796
332.288	38.3926
335.663	38.3301
339.038	26.5298
342.412	26.1394
345.787	17.2629
349.162	6.98071
352.537	2.11816
355.912	1.82593
359.286	4.94531
362.661	11.0293
366.036	13.2336
369.411	2.65918
372.786	1.38818
376.161	7.24487
379.535	13.1445
382.91	16.6921
386.285	17.668
389.66	15.5715
393.035	5.86401
396.409	9.39795
399.784	14.7332
403.159	17.2334
406.534	16.0117
409.909	8.73438
413.284	13.4324
416.658	14.5967
420.033	16.1199
423.408	11.8645
426.783	8.42822
430.158	1.77905
433.532	1.10132
436.907	6.95117
440.282	3.24268
443.657	1.48584
447.032	0.915039
450.406	3.60938
453.781	5.91089
457.156	17.343
460.531	19.9121
463.906	25.1306
467.281	27.6836
470.655	35.0093
474.03	31.0852
477.405	27.1802
480.78	23.845
484.155	33.5703
487.529	39.7754
490.904	36.7056
494.279	29.1814
497.654	18.2329
501.029	12.4082
504.404	9.4126
507.778	4.92773
511.153	6.91064
514.528	7.27075
517.903	0.938721
521.278	3.77368
524.653	2.52124
528.027	5.40771
531.402	13.1929
534.777	9.3269
538.152	7.3313
541.527	14.2607
544.901	18.8843
548.276	24.3359
551.651	23.477
555.026	27.385
558.401	30.0701
561.775	37.9448
565.15	45.2891
568.525	39.3042
571.9	46.9248
575.275	51.3332
578.649	56.0347
582.024	56.7893
585.399	61.7007
588.774	64.9719
592.149	63.8643
595.524	63.1775
598.898	61.304
602.273	64.1182
605.648	59.1858
609.023	66.7507
612.398	67.0447
615.773	65.9368
619.147	57.2874
622.522	52.5645
625.897	44.9165
629.272	38.7683
632.647	30.3462
636.021	24.1206
639.396	19.1838
642.771	14.843
646.146	13.4416
649.521	10.6511
652.895	4.93799
656.27	3.57959
659.645	0.871582
663.02	5.34424
666.395	1.85877
669.77	1.55981
673.144	4.78809
676.519	4.84021
679.894	2.97949
683.269	0.400757
686.644	0.874023
690.019	8.23084
693.393	7.37671
696.768	14.3386
700.143	18.929
703.518	25.5021
706.893	30.8466
710.267	38.8621
713.642	38.8199
717.017	47.1434
720.392	51.4788
723.767	55.6106
727.141	60.6111
730.516	63.6882
733.891	61.1876
737.266	68.1783
740.641	69.7417
744.016	76.4921
747.39	75.0513
750.765	84.4017
754.14	81.1075
757.515	80.6238
760.89	75.0018
764.264	79.6477
767.639	76.1219
771.014	74.7528
774.389	71.5537
777.764	65.6261
781.139	65.766
784.513	64.4869
787.888	56.6461
791.263	54.2092
794.638	53.9712
798.013	47.2122
801.388	45.4558
804.762	48.4711
808.137	46.9274
811.512	41.464
814.887	38.2266
818.261	40.4513
821.636	35.2647
825.011	26.5238
828.386	17.4132
831.761	23.2604
835.136	19.3767
838.51	13.2461
841.885	19.323
845.26	21.1054
848.635	13.8987
852.01	10.0048
855.385	10.1455
858.759	13.1899
862.134	11.8164
865.509	13.372
868.884	9.09949
872.259	9.91443
875.633	4.54785
879.008	3.91736
882.383	0.976196
885.758	5.33606
889.133	1.49792
892.508	1.53333
895.882	2.53711
899.257	4.59106
902.632	1.42139
906.007	0.260254
909.382	3.03406
912.756	1.13696
916.131	1.01636
919.506	0.255737
922.881	6.19897
926.256	8.48852
929.63	11.074
933.005	11.6479
936.38	11.76
939.755	16.5045
943.13	19.52
946.505	24.2792
949.879	24.5675
953.254	24.7324
956.629	26.0184
960.004	23.4292
963.379	22.2422
966.754	23.3291
970.128	22.7927
973.503	17.4258
976.878	20.7642
980.253	16.1472
983.628	14.8758
987.002	15.8019
990.377	15.6492
993.752	15.822
997.127	10.4273
1000.5	9.92761
1003.88	11.7039
1007.25	10.7537
1010.63	12.1086
1014	11.5038
1017.38	11.2479
1020.75	9.66858
1024.12	6.97961
1027.5	11.5956
1030.88	7.96179
1034.25	12.9968
1037.62	14.845
1041	9.90076
1044.37	13.083
1047.75	8.94446
1051.12	7.34326
1054.5	8.36157
1057.87	5.07202
1061.25	0.335815
1064.62	4.60449
1068	2.07385
1071.37	0.275513
1074.75	4.8512
1078.12	1.38452
1081.5	1.72327
1084.87	6.64148
1088.25	4.39539
1091.62	4.15894
1095	1.21936
1098.37	1.54028
1101.75	2.00366
1105.12	0.774414
1108.5	2.56067
1111.87	3.77502
1115.24	1.33142
1118.62	2.9154
1121.99	6.86658
1125.37	1.24768
1128.74	0.513306
1132.12	0.699341
1135.49	0.12915
1138.87	3.18005
1142.24	2.86084
1145.62	1.82935
1148.99	2.37598
1152.37	6.58203
1155.74	5.05005
1159.12	2.54761
1162.49	1.60852
1165.87	3.57263
1169.24	1.58752
1172.62	3.09241
1175.99	14.2548
1179.37	3.58826
1182.74	2.55396
1186.12	8.23071
1189.49	3.66052
1192.87	7.271
1196.24	3.93994
1199.62	2.66675
1202.99	2.05139
1206.37	5.38635
1209.74	4.93189
1213.12	2.19702
1216.49	4.06982
1219.87	5.14172
1223.24	2.51172
1226.61	0.949463
1229.99	0.452393
1233.36	1.3833
1236.74	3.95337
1240.11	2.13989
1243.49	2.75122
1246.86	7.49719
1250.24	5.38306
1253.61	5.77625
1256.99	5.74304
1260.36	4.77087
1263.74	1.78198
1267.11	3.88428
1270.49	2.95252
1273.86	1.44055
1277.24	1.90027
1280.61	2.44983
1283.99	3.88892
1287.36	3.39844
1290.74	0.563965
1294.11	2.23767
1297.49	1.03857
1300.86	1.11719
