Measurement: Raman, 780 nm, unoriented, Raman Data Processed
Mineral: Zirkelite
Rruff sample: R060540
Ideal chemistry: (Ti^4+^,Ca,Zr^4+^)O_2-x_
Locality: Palabora Open Pit, Phalaborwa, Transvaal, Republic of South Africa
Source: Michael Scott
Description: Black flattened octahedra, metamict
Measured chemistry: (Ti_0.42_Zr_0.28_Ca_0.20_Fe^3+^_0.08_Th_0.02_)_Î£=1_O_1.76_; trace amounts of Ce, Pb, U
Raman shift (cm-1)	intensity
101.202	0
104.577	0.296875
107.952	12.8428
111.327	11.0498
114.701	20.1484
118.076	18.5771
121.451	14.4473
124.826	41.29
128.201	41.8794
131.576	62.6387
134.95	77.0723
138.325	98.1499
141.7	119.382
145.075	122.379
148.45	123.829
151.825	121.078
155.199	118.462
158.574	115.236
161.949	106.587
165.324	97.3521
168.698	92.3584
172.073	94.814
175.448	89.6719
178.823	73.9404
182.198	66.124
185.573	76.9736
188.947	56.0986
192.322	28.6582
195.697	14.9893
199.072	1.94482
202.447	2.24853
205.821	4.34619
209.196	1.11328
212.571	0.709473
215.946	0.191406
219.321	11.439
222.696	2.55176
226.07	0.682617
229.445	2.44775
232.82	4.11523
236.195	7.98682
239.57	15.585
242.945	15.188
246.319	18.8525
249.694	17.3379
253.069	13.6055
256.444	8.62842
259.818	18.3189
263.193	15.8491
266.568	27.5864
269.943	33.8071
273.318	32.2524
276.693	45.8115
280.067	41.7295
283.442	43.6392
286.817	43.7612
290.192	50.7266
293.567	48.8052
296.942	63.1792
300.316	60.0518
303.691	58.0083
307.066	60.0762
310.441	43.7695
313.816	47.3081
317.19	45.3198
320.565	39.1968
323.94	31.6426
327.315	27.4443
330.69	19.2085
334.065	18.9912
337.439	15.7739
340.814	17.7168
344.189	9.77148
347.564	1.10938
350.938	11.4131
354.313	9.39307
357.688	5.92139
361.063	0.72168
364.438	3.79981
367.813	11.0366
371.187	19.2764
374.562	25.3686
377.937	20.102
381.312	32.6318
384.687	29.5371
388.062	38.2895
391.436	35.958
394.811	56.4912
398.186	36.4062
401.561	39.3613
404.935	36.7126
408.31	41.2432
411.685	41.1233
415.06	30.0195
418.435	29.0276
421.81	36.4365
425.184	34.8191
428.559	36.5647
431.934	41.635
435.309	31.7283
438.684	32.8096
442.058	34.3406
445.433	28.5544
448.808	36.2805
452.183	46.5649
455.558	55.5825
458.933	53.6148
462.307	55.5696
465.682	60.0613
469.057	68.219
472.432	61.696
475.807	55.6589
479.182	43.9143
482.556	48.2961
485.931	48.1489
489.306	48.4033
492.681	44.6965
496.055	40.7471
499.43	34.7649
502.805	33.3323
506.18	24.8635
509.555	24.1284
512.93	14.8176
516.304	20.5918
519.679	13.8813
523.054	8.50757
526.429	11.3076
529.804	3.5581
533.178	6.25684
536.553	2.45532
539.928	2.79419
543.303	10.3118
546.678	4.61035
550.053	0.129883
553.427	3.98071
556.802	3.44946
560.177	6.82837
563.552	7.80664
566.927	9.75659
570.302	18.155
573.676	21.8132
577.051	32.3565
580.426	30.5906
583.801	23.9739
587.176	26.9409
590.55	33.075
593.925	35.4836
597.3	51.6289
600.675	45.9551
604.05	46.1472
607.424	47.3347
610.799	46.6977
614.174	49.9111
617.549	44.3083
620.924	35.7197
624.298	34.1404
627.673	32.2222
631.048	23.9902
634.423	31.2881
637.798	20.0325
641.173	19.7153
644.547	6.62939
647.922	4.42773
651.297	1.09155
654.672	6.30981
658.047	0.530762
661.421	2.09204
664.796	0.782959
668.171	0.074951
671.546	0.369629
674.921	4.29883
678.295	2.77759
681.67	2.86548
685.045	7.10522
688.42	10.8516
691.795	8.56616
695.17	25.3438
698.544	16.3142
701.919	14.8433
705.294	18.0837
708.669	20.9883
712.044	24.8852
715.418	24.3643
718.793	24.4062
722.168	23.3643
725.543	20.1953
728.918	20.3498
732.293	20.1335
735.667	24.431
739.042	22.5064
742.417	17.9194
745.792	15.5918
749.167	18.2051
752.541	11.9141
755.916	18.1781
759.291	12.7274
762.666	9.47534
766.041	7.53992
769.415	4.63916
772.79	11.8334
776.165	7.59241
779.54	8.07361
782.915	5.65784
786.29	8.99109
789.664	6.88428
793.039	3.60767
796.414	8.16626
799.789	4.77905
803.164	6.38232
806.538	9.68274
809.913	6.00244
813.288	5.46375
816.663	6.85022
820.038	3.23608
823.413	5.9729
826.787	6.63257
830.162	6.99439
833.537	3.69763
836.912	3.47864
840.287	8.03931
843.661	8.59021
847.036	14.8308
850.411	13.6948
853.786	10.5676
857.161	10.8584
860.535	9.52148
863.91	10.0787
867.285	3.05481
870.66	7.12683
874.035	5.6842
877.409	3.08142
880.784	0.887207
884.159	2.50012
887.534	1.3844
890.909	0.620972
894.284	3.3169
897.658	1.74377
901.033	1.1969
904.408	2.50427
907.783	1.25903
911.158	1.39868
914.533	0.020996
917.907	5.62781
921.282	3.98669
924.657	4.64441
928.032	7.07703
931.407	8.62622
934.781	10.1014
938.156	12.1224
941.531	11.3925
944.906	11.5394
948.281	11.7118
951.655	8.50171
955.03	8.93665
958.405	9.03589
961.78	7.56604
965.155	8.40308
968.529	4.16614
971.904	5.73731
975.279	2.51697
978.654	5.08679
982.029	5.34631
985.404	3.58923
988.778	5.67749
992.153	3.25598
995.528	5.86963
998.903	4.22424
1002.28	4.44702
1005.65	4.61987
1009.03	3.04675
1012.4	1.68262
1015.78	3.40576
1019.15	2.86914
1022.53	6.86841
1025.9	4.56726
1029.28	17.244
1032.65	2.11682
1036.03	5.75879
1039.4	7.03821
1042.78	5.42615
1046.15	3.32629
1049.53	4.96094
1052.9	5.65002
1056.28	3.50232
1059.65	6.7334
1063.02	6.20044
1066.4	5.88257
1069.77	4.04309
1073.15	3.02563
1076.52	3.41699
1079.9	7.05713
1083.27	2.7113
1086.65	9.26538
1090.02	4.63879
1093.4	5.27258
1096.77	2.25806
1100.15	4.53833
1103.52	1.78125
1106.9	2.01111
1110.27	2.72022
1113.65	9.40918
1117.02	0.076904
1120.4	0.904053
1123.77	1.89563
1127.15	0.660156
1130.52	0.742554
1133.9	1.89954
1137.27	4.88306
1140.64	4.71436
1144.02	3.11572
1147.39	2.11121
1150.77	3.69995
1154.14	1.76648
1157.52	5.42554
1160.89	3.53735
1164.27	5.24683
1167.64	7.01428
1171.02	3.10376
1174.39	9.60938
1177.77	9.21191
1181.14	5.38159
1184.52	8.91736
1187.89	3.16479
1191.27	7.40808
1194.64	6.30518
1198.02	9.12573
1201.39	8.58093
1204.77	5.05981
1208.14	8.06921
1211.52	8.02246
1214.89	2.48047
1218.27	1.44116
1221.64	0.73584
1225.02	3.59558
1228.39	4.22095
1231.77	4.47241
1235.14	3.14539
1238.52	1.73498
1241.89	0.351196
1245.26	2.8678
1248.64	4.33801
1252.01	2.4375
1255.39	6.32214
1258.76	6.0675
1262.14	7.46387
1265.51	8.19885
1268.89	4.9198
1272.26	2.56079
1275.64	1.11768
1279.01	3.66003
1282.39	3.13123
