Measurement: Raman, 785 nm, unoriented, Raman Data Processed
Mineral: Znucalite
Rruff sample: R070483
Ideal chemistry: CaZn^2+^_11_(U^6+^O_2_)(CO_3_)_3_(OH)_20_4H_2_O
Locality: Lill Mine, Black pits deposit, Březové Hory (Birkenberg), Příbram, Central Bohemia Region, Bohemia (Böhmen; Boehmen), Czech Republic
Source: Michael Scott
Description: Bright to pale yellow crust
Raman shift (cm-1)	intensity
164.79	0
167.683	96.7773
170.576	166.485
173.468	54.3838
176.361	11.7412
179.254	8.11719
182.146	55.9004
185.039	143.522
187.932	155.735
190.824	175.149
193.717	453.44
196.61	481.273
199.502	685.45
202.395	805.477
205.288	892.256
208.181	1077.24
211.073	1165.89
213.966	1281.17
216.859	1223.38
219.751	1209.53
222.644	1132.93
225.537	1127.09
228.429	951.031
231.322	905.202
234.215	770.044
237.108	642.625
240	650.049
242.893	440.769
245.786	424.969
248.678	292.808
251.571	214.348
254.464	245.885
257.356	207.399
260.249	281.863
263.142	130.02
266.035	170.939
268.927	165.019
271.82	178.197
274.713	448.613
277.605	203.074
280.498	89.6035
283.391	77.1348
286.284	37.7422
289.176	13.0225
292.069	5.60644
294.962	33.044
297.854	36.708
300.747	4.92676
303.64	13.0273
306.532	41.1602
309.425	15.6719
312.318	48.3877
315.211	56.4971
318.103	46.3828
320.996	141.162
323.889	167.526
326.781	233.013
329.674	237.047
332.567	241.761
335.459	364.903
338.352	338.845
341.245	322.334
344.137	327.862
347.03	408.523
349.923	463.629
352.816	289.41
355.708	468.644
358.601	379.009
361.494	367.062
364.386	462.744
367.279	334.299
370.172	464.178
373.065	495.216
375.957	451.965
378.85	421.326
381.743	523.056
384.635	373.646
387.528	362.318
390.421	296.631
393.313	334.497
396.206	254.38
399.099	197.7
401.991	136.18
404.884	192.565
407.777	225.106
410.67	174.635
413.562	230.39
416.455	221.99
419.348	248.349
422.24	164.241
425.133	158.558
428.026	95.2402
430.918	162.964
433.811	157.469
436.704	88.6475
439.597	106.374
442.489	13.7295
445.382	11.7998
448.275	63.6299
451.167	5.23535
454.06	86.1211
456.953	13.3193
459.846	85.5606
462.738	10.1572
465.631	24.9268
468.524	12.8799
471.416	16.0918
474.309	14.1074
477.202	14.1943
480.094	36.7978
482.987	58.748
485.88	53.6934
488.772	119.682
491.665	41.2109
494.558	20.0508
497.451	69.5557
500.343	94.6377
503.236	8.7793
506.129	100.295
509.021	29.8867
511.914	115.557
514.807	14.8838
517.699	3.95508
520.592	9.12695
523.485	43.208
526.378	51.1162
529.27	103.82
532.163	39.6357
535.056	28.3027
537.948	115.167
540.841	83.0439
543.734	28.2598
546.626	10.5176
549.519	28.0869
552.412	59.9209
555.305	53.3027
558.197	73.6553
561.09	74.5859
563.983	22.7754
566.875	36.6953
569.768	18.291
572.661	18.4189
575.553	66.3174
578.446	128.987
581.339	59.21
584.232	85.0107
587.124	87.4053
590.017	52.0625
592.91	74.8047
595.802	109.332
598.695	127.47
601.588	94.7598
604.48	130.833
607.373	91.5928
610.266	77.1934
613.159	14.4531
616.051	69.7832
618.944	149.162
621.837	104.977
624.729	76.2891
627.622	59.9385
630.515	42.9102
633.407	127.348
636.3	98.0273
639.193	98.7773
642.086	20.4912
644.978	2.27441
647.871	48.7529
650.764	78.4424
653.656	66.6592
656.549	63.2139
659.442	32.0254
662.334	93.1758
665.227	2.88965
668.12	7.05566
671.013	31.7178
673.905	10.4287
676.798	39.374
679.691	7.01269
682.583	16.9697
685.476	48.4912
688.369	69.1269
691.261	88.9502
694.154	51.0449
697.047	123.196
699.939	173.438
702.832	240.482
705.725	206.345
708.618	185.167
711.51	149.263
714.403	100.711
717.296	183.705
720.188	204.708
723.081	170.676
725.974	184.068
728.866	256.028
731.759	443.019
734.652	347.711
737.545	497.924
740.437	392.318
743.33	356.674
746.223	330.406
749.115	284.377
752.008	288.184
754.901	347.715
757.793	307.565
760.686	422.128
763.579	401.611
766.472	407.88
769.364	386.598
772.257	371.226
775.15	164.752
778.042	74.2519
780.935	5.23438
783.828	15.5801
786.721	3.45898
789.613	7.58203
792.506	47.9141
795.399	16.0176
798.291	91.2314
801.184	116.005
804.077	182.539
806.969	330.037
809.862	429.387
812.755	615.208
815.648	820.711
818.54	1028.26
821.433	1267.01
824.326	1513.7
827.218	1815.25
830.111	2229.84
833.004	2689.92
835.896	2976.95
838.789	3219.15
841.682	2835.91
844.574	2165.01
847.467	1475.85
850.36	936.898
853.253	546.685
856.145	305.42
859.038	233.592
861.931	134.453
864.823	114.86
867.716	70.9697
870.609	155.944
873.501	1.04688
876.394	39.2832
879.287	67.2353
882.18	63.6435
885.072	46.958
887.965	14.6045
890.858	33.5615
893.75	8.2998
896.643	19.2773
899.536	6.00391
902.428	47.4746
905.321	33.5566
908.214	98.5449
911.107	74.5039
913.999	51.626
916.892	44.6172
919.785	0.751953
922.677	37.0185
925.57	0.111816
928.463	51.5225
931.356	82.5293
934.248	60.6157
937.141	74.4829
940.034	45.9033
942.926	27.7651
945.819	2.14307
948.712	59.8755
951.604	11.3701
954.497	61.5732
957.39	83.8257
960.283	11.3101
963.175	45.5308
966.068	93.3603
968.961	41.0195
971.853	52.272
974.746	44.4858
977.639	82.4741
980.531	111.431
983.424	48.0806
986.317	55.8413
989.209	37.7871
992.102	24.8574
994.995	34.5727
997.888	13.9712
1000.78	22.082
1003.67	40.4961
1006.57	4.50732
1009.46	39.707
1012.35	23.7407
1015.24	41.7329
1018.14	1.875
1021.03	51.1279
1023.92	76.0825
1026.82	48.0928
1029.71	75.4082
1032.6	142.115
1035.49	185.779
1038.38	191.731
1041.28	191.574
1044.17	273.447
1047.06	377.443
1049.96	454.778
1052.85	651.877
1055.74	803.402
1058.63	829.373
1061.53	716.134
1064.42	576.215
1067.31	544.005
1070.2	644.239
1073.1	691.999
1075.99	928.057
1078.88	849.385
1081.78	640.78
1084.67	380.362
1087.56	293.359
1090.45	275.029
1093.35	189.093
1096.24	79.6973
1099.13	137.26
1102.03	104.506
1104.92	51.1333
1107.81	80.0229
1110.7	43.9473
1113.6	50.5772
1116.49	29.8189
1119.38	98.6108
1122.27	85.6909
1125.17	0.552734
1128.06	27.4487
1130.95	61.9458
1133.84	36.3096
1136.74	29.0732
1139.63	32.2705
1142.52	25.7949
1145.41	42.5386
1148.31	33.8149
1151.2	42.6079
1154.09	58.9292
1156.99	35.751
1159.88	32.8911
1162.77	38.6626
1165.66	42.6328
1168.56	56.8623
1171.45	38.1934
1174.34	37.4907
1177.23	49.1084
1180.13	42.8945
1183.02	23.5391
1185.91	15.419
1188.81	81.5024
1191.7	95.1172
1194.59	1.10938
1197.48	53.3052
1200.38	114.272
1203.27	98.2031
1206.16	46.1528
1209.06	71.8852
1211.95	52.5024
1214.84	83.9746
1217.73	61.3897
1220.62	51.3784
1223.52	33.4106
1226.41	35.0855
1229.3	62.1255
1232.2	49.3726
1235.09	61.5205
1237.98	31.1875
1240.87	63.1357
1243.77	19.3227
1246.66	13.8472
1249.55	75.1377
1252.44	23.3594
