Measurement: Raman, 532 nm, unoriented, Raman Data Processed
Mineral: Zorite
Rruff sample: R060953
Ideal chemistry: Na_6_Ti^4+^_5_Si_12_O_34_(O,OH)_5_11H_2_O
Locality: Lovozero Massif, Kola Peninsula, Russia
Source: Bob Jenkins
Description: Groups of pale pink transparent acicular crystals
Raman shift (cm-1)	intensity
172.145	0
175.038	6.09497
177.931	22.84
180.823	7.4165
183.716	60.5476
186.609	91.8169
189.501	122.57
192.394	128.241
195.287	182.404
198.179	207.705
201.072	267.319
203.965	316.759
206.858	400.077
209.75	418.361
212.643	462.858
215.536	523.787
218.428	581.79
221.321	652.809
224.214	691.88
227.107	764.312
229.999	848.655
232.892	886.353
235.785	865.989
238.677	821.709
241.57	797.075
244.463	716.537
247.355	681.412
250.248	666.723
253.141	608.578
256.033	553.867
258.926	525.439
261.819	487.685
264.712	432.337
267.604	413.143
270.497	302.183
273.39	238.96
276.282	222.951
279.175	186.071
282.068	72.4741
284.96	70.1291
287.853	78.2075
290.746	22.5476
293.639	27.5029
296.531	2.48218
299.424	27.4545
302.317	27.5388
305.209	87.7939
308.102	126.217
310.995	142.924
313.887	169.454
316.78	213.277
319.673	164.727
322.565	202.073
325.458	190.709
328.351	181.691
331.244	175.242
334.136	160.218
337.029	137.713
339.922	73.7744
342.814	69.3633
345.707	25.5334
348.6	4.76733
351.493	7.15369
354.385	28.1902
357.278	0.688354
360.171	11.9435
363.063	26.5809
365.956	30.8396
368.849	0.58667
371.741	4.53369
374.634	6.0863
377.527	10.6475
380.419	24.9481
383.312	37.0029
386.205	51.228
389.098	41.4323
391.99	45.51
394.883	44.6801
397.776	45.4238
400.668	105.22
403.561	67.1258
406.454	76.8921
409.346	105.813
412.239	99.2992
415.132	133.337
418.024	129.784
420.917	189.201
423.81	238.95
426.703	269.281
429.595	312.889
432.488	342.709
435.381	376.124
438.273	384.801
441.166	397.648
444.059	436.356
446.952	410.677
449.844	343.877
452.737	339.823
455.63	314.924
458.522	245.522
461.415	190.231
464.308	127.621
467.2	132.838
470.093	151.266
472.986	94.4824
475.878	101.97
478.771	59.6116
481.664	68.6977
484.557	75.885
487.449	16.6099
490.342	11.1909
493.235	15.1282
496.127	61.1938
499.02	30.0095
501.913	130.269
504.805	182.697
507.698	266.621
510.591	326.964
513.484	382.619
516.376	434.7
519.269	432.134
522.162	422.534
525.054	386.95
527.947	352.856
530.84	324.968
533.732	267.661
536.625	255.469
539.518	236.313
542.41	221.284
545.303	182.523
548.196	145.182
551.089	126.373
553.981	106.073
556.874	115.311
559.767	57.5908
562.659	35.206
565.552	24.6008
568.445	9.57007
571.337	28.0005
574.23	2.85596
577.123	33.4155
580.016	3.3457
582.908	7.35083
585.801	37.1821
588.694	20.5823
591.586	6.6958
594.479	44.3227
597.372	8.61743
600.264	21.0991
603.157	48.0381
606.05	46.8972
608.942	124.818
611.835	99.5347
614.728	141.613
617.621	146.279
620.513	193.935
623.406	229.235
626.299	215.718
629.191	226.571
632.084	200.178
634.977	217.427
637.87	216.517
640.762	262.596
643.655	210.567
646.548	188.471
649.44	170.29
652.333	196.514
655.226	172.22
658.118	100.311
661.011	88.2483
663.904	51.8826
666.797	82.4045
669.689	55.0063
672.582	66.0244
675.475	80.0938
678.367	36.5134
681.26	9.72876
684.153	11.2222
687.045	13.3313
689.938	15.7583
692.831	12.6873
695.723	12.7214
698.616	6.46973
701.509	5.47412
704.402	6.84033
707.294	3.89941
710.187	4.47778
713.08	15.8279
715.972	40.8562
718.865	35.7041
721.758	53.8284
724.65	114.304
727.543	79.0938
730.436	137.735
733.328	111.403
736.221	192.451
739.114	174.009
742.007	195.114
744.899	180.562
747.792	207.853
750.685	194.115
753.577	170.709
756.47	225.568
759.363	244.516
762.255	205.071
765.148	264.388
768.041	323.582
770.934	260.249
773.826	247.922
776.719	260.084
779.612	259.672
782.504	236.868
785.397	227.7
788.29	193.117
791.183	222.265
794.075	165.293
796.968	193.553
799.861	178.764
802.753	184.802
805.646	155.793
808.539	119.655
811.431	108.475
814.324	170.277
817.217	159.969
820.109	137.476
823.002	142.73
825.895	128.467
828.788	125.897
831.68	134.455
834.573	140.634
837.466	118.685
840.358	115.453
843.251	82.3057
846.144	12.706
849.036	32.2656
851.929	0.520508
854.822	31.1773
857.715	9.96826
860.607	14.1418
863.5	28.7744
866.393	18.5486
869.285	27.8679
872.178	6.21729
875.071	14.5164
877.963	103.079
880.856	120.814
883.749	160.495
886.641	179.494
889.534	193.124
892.427	248.004
895.32	250.498
898.212	300.753
901.105	309.787
903.998	246.043
906.89	256.451
909.783	217.026
912.676	226.239
915.568	147.655
918.461	147.673
921.354	238.993
924.246	177.916
927.139	196.657
930.032	186.042
932.925	181.57
935.817	183.545
938.71	220.289
941.603	190.718
944.495	238.284
947.388	198.925
950.281	228.262
953.173	207.915
956.066	192.385
958.959	185.558
961.852	160.715
964.744	145.626
967.637	93.1609
970.53	69.043
973.422	91.2647
976.315	69.9421
979.208	39.562
982.101	37.9512
984.993	55.6521
987.886	25.3801
990.779	12.7744
993.671	18.156
996.564	1.97436
999.457	10.4248
1002.35	15.4697
1005.24	2.27002
1008.13	9.0769
1011.03	33.3054
1013.92	22.4419
1016.81	50.334
1019.71	36.6365
1022.6	111.749
1025.49	129.126
1028.38	108.996
1031.28	119.665
1034.17	95.1643
1037.06	119.326
1039.95	127.557
1042.85	95.9827
1045.74	105.262
1048.63	79.365
1051.53	126.675
1054.42	144.95
1057.31	85.0542
1060.2	107.847
1063.1	71.3125
1065.99	24.5742
1068.88	31.0872
1071.77	18.1111
1074.67	8.01025
1077.56	23.7966
1080.45	12.9448
1083.35	32.0703
1086.24	8.0166
1089.13	21.218
1092.02	46.3379
1094.92	15.3364
1097.81	53.0185
1100.7	6.48535
1103.59	32.5908
1106.49	62.6318
1109.38	24.8259
1112.27	21.5657
1115.16	52.2122
1118.06	28.4888
1120.95	39.2295
1123.84	41.5886
1126.73	9.64673
1129.63	28.7495
1132.52	30.9211
1135.41	40.6582
1138.31	65.1113
1141.2	38.4951
1144.09	22.2781
1146.98	7.63867
1149.88	49.8572
1152.77	52.6038
1155.66	30.2163
1158.56	42.7549
1161.45	29.4915
1164.34	45.7615
1167.23	7.07007
1170.13	9.15747
1173.02	18.3574
1175.91	30.2034
1178.8	24.3452
1181.7	51.6304
1184.59	48.7024
1187.48	35.029
1190.38	64.3899
1193.27	33.9783
1196.16	26.3237
1199.05	51.5808
1201.94	53.2224
1204.84	5.72339
1207.73	39.0303
1210.62	24.9041
1213.52	61.8186
1216.41	51.1135
1219.3	10.0898
1222.19	7.42212
1225.09	45.4734
1227.98	93.04
1230.87	91.2046
1233.77	70.2625
1236.66	52.3164
1239.55	65.4185
1242.44	25.0698
1245.34	31.5789
1248.23	26.3013
1251.12	34.5732
1254.01	33.3538
1256.91	39.0085
1259.8	30.4722
1262.69	9.15454
1265.59	21.272
1268.48	49.4522
1271.37	33.552
1274.26	42.0486
1277.16	24.6753
