Measurement: Raman, 785 nm, unoriented, Raman Data Processed
Mineral: Zorite
Rruff sample: R060953
Ideal chemistry: Na_6_Ti^4+^_5_Si_12_O_34_(O,OH)_5_11H_2_O
Locality: Lovozero Massif, Kola Peninsula, Russia
Source: Bob Jenkins
Description: Groups of pale pink transparent acicular crystals
Raman shift (cm-1)	intensity
145.152	0
148.044	478.628
150.937	420.259
153.83	129.707
156.722	53.957
159.615	77.8227
162.508	270.291
165.401	336.005
168.293	310.49
171.186	238.701
174.079	177.19
176.971	94.1773
179.864	133.39
182.757	151.346
185.649	217.331
188.542	305.661
191.435	337.645
194.328	426.478
197.22	553.924
200.113	611.689
203.006	733.233
205.898	739.683
208.791	828.984
211.684	879.408
214.577	1011.67
217.469	1160.95
220.362	1254.53
223.255	1348.59
226.147	1508.5
229.04	1606.09
231.933	1726.69
234.825	1776.41
237.718	1794.98
240.611	1707.63
243.504	1500.29
246.396	1421.04
249.289	1317.83
252.182	1248.61
255.074	1204.91
257.967	1234.11
260.86	1124.14
263.752	978.97
266.645	830.025
269.538	754.242
272.43	608.17
275.323	501.57
278.216	453.807
281.109	360.505
284.001	189.558
286.894	129.177
289.787	19.5601
292.679	19.5903
295.572	48.0269
298.465	13.0915
301.358	72.4688
304.25	140.408
307.143	259.895
310.036	347.744
312.928	347.617
315.821	476.499
318.714	573.508
321.606	507.005
324.499	544.634
327.392	572.838
330.284	579.295
333.177	527.243
336.07	411.098
338.962	316.969
341.855	224.482
344.748	161.552
347.641	116.412
350.533	73.3003
353.426	54.6194
356.319	18.7412
359.211	14.2781
362.104	22.2048
364.997	47.0754
367.889	4.94507
370.782	30.7947
373.675	7.89551
376.568	25.0596
379.46	71.4812
382.353	24.8572
385.246	37.1687
388.138	69.3232
391.031	53.7927
393.924	74.6648
396.817	87.1145
399.709	104.843
402.602	65.1863
405.495	80.8408
408.387	124.739
411.28	146.94
414.173	165.612
417.065	242.924
419.958	302.639
422.851	329.278
425.743	363.952
428.636	437.658
431.529	508.017
434.422	573.273
437.314	644.817
440.207	701.508
443.1	781.312
445.992	779.231
448.885	720.186
451.778	659.415
454.671	560.269
457.563	485.722
460.456	395.773
463.349	333.967
466.241	297.846
469.134	206.613
472.027	181.064
474.919	188.439
477.812	101.649
480.705	115.594
483.597	93.562
486.49	84.9919
489.383	75.4192
492.276	130.404
495.168	144.855
498.061	169.61
500.954	252.433
503.846	386.561
506.739	490.003
509.632	642.333
512.524	760.37
515.417	821.322
518.31	899.782
521.202	823.981
524.095	768.678
526.988	706.777
529.881	677.849
532.773	549.252
535.666	440.851
538.559	444.082
541.451	439.72
544.344	369.288
547.237	320.88
550.13	259.261
553.022	239.931
555.915	187.863
558.808	128.613
561.7	97.1252
564.593	101.165
567.486	43.4509
570.378	9.82373
573.271	27.196
576.164	29.5061
579.057	5.73706
581.949	8.0979
584.842	13.5913
587.735	26.656
590.627	3.63354
593.52	16.9512
596.413	40.4631
599.305	3.25757
602.198	27.7793
605.091	29.145
607.984	88.8816
610.876	72.1458
613.769	127.964
616.662	234.933
619.554	265.784
622.447	292.769
625.34	260.94
628.232	313.762
631.125	347.684
634.018	400.977
636.91	418.656
639.803	324.156
642.696	400.62
645.589	392.326
648.481	354.423
651.374	328.678
654.267	324.575
657.159	239.261
660.052	277.576
662.945	181.933
665.837	201.234
668.73	126.688
671.623	109.908
674.515	99.2432
677.408	42.855
680.301	84.0056
683.194	30.613
686.086	47.8594
688.979	54.4895
691.872	58.5562
694.764	71.2688
697.657	70.96
700.55	51.8962
703.442	33.1179
706.335	11.4756
709.228	11.2168
712.121	16.4783
715.013	8.48852
717.906	21.1987
720.799	30.2371
723.691	78.5947
726.584	80.8965
729.477	14.4495
732.37	78.8999
735.262	122.36
738.155	164.145
741.048	179.62
743.94	210.493
746.833	232.923
749.726	250.263
752.618	275.609
755.511	273.242
758.404	290.307
761.296	266.841
764.189	311.927
767.082	294.992
769.975	316.281
772.867	354.209
775.76	331.027
778.653	288.415
781.545	259.581
784.438	243.856
787.331	244.852
790.223	212.969
793.116	193.048
796.009	151.623
798.902	115.474
801.794	94.6318
804.687	99.448
807.58	162.064
810.472	122.623
813.365	150.45
816.258	101.818
819.15	110.644
822.043	79.6079
824.936	101.846
827.829	74.7297
830.721	56.3332
833.614	63.4187
836.507	22.1724
839.399	42.5261
842.292	19.0493
845.185	11.4477
848.077	1.79541
850.97	11.7485
853.863	17.9636
856.755	42.798
859.648	24.8619
862.541	27.3086
865.434	0.064087
868.326	52.4511
871.219	106.637
874.112	132.828
877.004	176.675
879.897	257.926
882.79	291.504
885.683	368.717
888.575	425.877
891.468	485.992
894.361	558.594
897.253	582.468
900.146	580.732
903.039	560.71
905.931	532.944
908.824	473.654
911.717	403.425
914.61	293.946
917.502	285.523
920.395	295.783
923.288	290.765
926.18	298.622
929.073	304.644
931.966	315.25
934.858	336.189
937.751	341.416
940.644	352.753
943.536	375.839
946.429	387.575
949.322	325.771
952.215	349.137
955.107	310.386
958	282.527
960.893	271.017
963.785	222.148
966.678	182.51
969.571	176.933
972.463	108.514
975.356	91.5231
978.249	80.2413
981.141	60.0336
984.034	42.6544
986.927	14.8461
989.82	4.37036
992.712	43.9912
995.605	22.5579
998.498	34.1973
1001.39	47.0934
1004.28	46.6864
1007.18	43.2267
1010.07	63.2443
1012.96	67.0126
1015.85	67.8633
1018.75	102.444
1021.64	51.9179
1024.53	72.5523
1027.42	112.626
1030.32	131.685
1033.21	172.525
1036.1	162.918
1038.99	201.981
1041.89	189.891
1044.78	193.894
1047.67	231.321
1050.57	250.006
1053.46	207.056
1056.35	170.869
1059.24	163.158
1062.14	152.906
1065.03	141.48
1067.92	125.36
1070.82	105.247
1073.71	110.59
1076.6	68.3554
1079.49	106.88
1082.39	83.1274
1085.28	80.4835
1088.17	61.3898
1091.06	50.0295
1093.96	60.4951
1096.85	46.9838
1099.74	50.6375
1102.63	31.4364
1105.53	16.7026
1108.42	28.2864
1111.31	3.08533
1114.21	0.358521
1117.1	8.59705
1119.99	0.829224
1122.88	18.9581
1125.78	16.5353
1128.67	9.21631
1131.56	18.5386
1134.45	36.5704
1137.35	17.05
1140.24	54.9592
1143.13	59.8704
1146.03	155.898
1148.92	128.799
1151.81	120.609
1154.7	133.142
1157.6	205.218
1160.49	169.247
1163.38	177.96
1166.27	177.669
1169.17	188.736
1172.06	122.613
1174.95	169.213
1177.85	137.108
1180.74	100.915
1183.63	79.1716
1186.52	27.2607
1189.42	52.4751
1192.31	5.35254
1195.2	4.396
1198.09	13.3445
1200.99	4.15723
1203.88	25.6057
1206.77	14.7085
1209.66	118.257
1212.56	206.612
1215.45	345.296
1218.34	476.649
1221.23	643.192
1224.13	823.457
1227.02	972.415
1229.91	987.923
1232.81	1044.8
1235.7	842.96
1238.59	698.788
1241.48	459.806
1244.38	308.196
1247.27	134.551
1250.16	6.27051
1253.06	40.1235
1255.95	4.32227
1258.84	50.1797
1261.73	139.803
1264.63	84.0034
1267.52	73.8018
1270.41	0
