Measurement: Raman, 780 nm, unoriented, Raman Data Processed
Mineral: Zussmanite
Rruff sample: R050448
Ideal chemistry: K(Fe^2+^,Mg,Mn^2+^,Fe^3+^)_13_(Si,Al)_18_O_42_(OH)_14_
Locality: Longvale Quarry, Mendocino County, California, USA
Source: Marcus Origlieri
Description: Aggregate of pale green tabular crystals
Measured chemistry: (K_0.87_[box]_0.13_)_Σ=1_(Fe_10.80_Mg_0.98_Mn_0.89_Al_0.33_)_Σ=13_(Si_16.80_Al_1.20_)_Σ=18_O_42_(OH)_14_
Raman shift (cm-1)	intensity
162.726	0
165.619	1.00914
168.511	0.595386
171.404	0.055505
174.297	0.376776
177.189	0.059056
180.082	0.419809
182.975	0.306474
185.868	0.396402
188.76	1.08526
191.653	0.669785
194.546	1.58326
197.438	2.06184
200.331	1.60926
203.224	1.22832
206.117	2.04603
209.009	1.25023
211.902	0.992156
214.795	1.34566
217.687	0.712067
220.58	1.11902
223.473	0.866425
226.365	1.6533
229.258	1.53681
232.151	2.1187
235.043	2.55384
237.936	2.29864
240.829	2.58514
243.722	2.95632
246.614	3.36951
249.507	2.46578
252.4	2.07521
255.292	1.99533
258.185	1.4343
261.078	1.46422
263.971	1.19502
266.863	0.500802
269.756	0.161695
272.649	0.585137
275.541	0.23952
278.434	0.358172
281.327	0.836381
284.219	1.30217
287.112	1.15169
290.005	1.83628
292.897	1.84103
295.79	1.18115
298.683	0.964104
301.576	0.454207
304.468	0.431585
307.361	0.676085
310.254	0.608759
313.147	0.115548
316.039	0.069057
318.932	0.127313
321.825	0.310469
324.717	0.020367
327.61	0.277032
330.503	0.107299
333.395	0.063461
336.288	0.100119
339.181	0.048209
342.074	0.270788
344.966	0.242107
347.859	0.2039
350.752	0.71144
353.644	0.739763
356.537	0.382535
359.43	0.703407
362.322	1.16796
365.215	1.75985
368.108	1.56189
371	1.87612
373.893	1.66766
376.786	2.80256
379.679	3.67738
382.571	4.10241
385.464	4.82526
388.357	4.54744
391.249	4.87758
394.142	4.97813
397.035	5.37609
399.928	4.83924
402.82	3.61809
405.713	2.8628
408.606	2.46195
411.498	2.37562
414.391	1.37102
417.284	1.30659
420.176	0.753815
423.069	0.101097
425.962	0.130959
428.854	0.033044
431.747	0.115385
434.64	0.045561
437.533	0.031632
440.425	0.174524
443.318	1.07271
446.211	1.2009
449.103	1.89163
451.996	3.30995
454.889	4.47233
457.781	6.40006
460.674	8.64252
463.567	10.2588
466.46	12.1879
469.352	13.1079
472.245	15.2686
475.138	19.1307
478.031	22.5272
480.923	22.5531
483.816	21.325
486.709	20.8508
489.601	19.1748
492.494	16.8171
495.387	13.998
498.279	10.6147
501.172	7.49263
504.065	5.5954
506.957	4.19498
509.85	3.77206
512.743	2.86449
515.636	2.14635
518.528	1.83515
521.421	0.982879
524.314	0.931712
527.206	0.067794
530.099	0.133876
532.992	0.003831
535.885	0.023578
538.777	0.264256
541.67	0.184216
544.563	0.23793
547.455	0.942834
550.348	1.73656
553.241	2.53052
556.133	2.73589
559.026	4.18358
561.919	4.40686
564.812	4.20193
567.704	4.05963
570.597	3.43269
573.49	3.80231
576.382	4.54806
579.275	5.68039
582.168	6.73139
585.06	8.98856
587.953	11.6142
590.846	14.9787
593.739	14.7541
596.631	11.7684
599.524	7.59953
602.417	4.17911
605.309	2.85367
608.202	1.60206
611.095	1.27162
613.987	1.07998
616.88	0.032905
619.773	0.002893
622.665	0.401505
625.558	0.071756
628.451	0.036975
631.344	0.124384
634.236	0.00454
637.129	0.553897
640.022	0.812747
642.914	0.856984
645.807	2.01474
648.7	2.22093
651.593	3.12722
654.485	3.85816
657.378	3.57717
660.271	4.02294
663.163	3.99008
666.056	3.57065
668.949	3.4278
671.841	3.05761
674.734	2.32105
677.627	1.48713
680.52	1.04046
683.412	0.812555
686.305	1.13029
689.198	0.771754
692.09	0.517925
694.983	0.046847
697.876	0.173509
700.769	0.275887
703.661	0.317176
706.554	0.02965
709.447	0.242211
712.339	0.008969
715.232	0.071258
718.125	0.053956
721.017	0.499172
723.91	0.334707
726.803	0.126411
729.696	0.155516
732.588	0.174979
735.481	0.123306
738.374	0.202139
741.266	0.044806
744.159	0.045978
747.052	0.035605
749.944	0.050379
752.837	0.541944
755.73	0.145381
758.623	0.205107
761.515	0.116048
764.408	0.280685
767.301	0.405107
770.193	0.501857
773.086	0.216705
775.979	0.221515
778.871	0.045503
781.764	0.572146
784.657	0.470959
787.55	0.127379
790.442	0.835023
793.335	0.259008
796.228	0.894218
799.12	1.03791
802.013	0.70151
804.906	0.337087
807.798	0.685688
810.691	0.862199
813.584	0.606011
816.477	0.447286
819.369	0.425649
822.262	0.692922
825.155	0.826722
828.047	0.155726
830.94	0.536381
833.833	0.297671
836.726	0.618966
839.618	0.601145
842.511	0.399247
845.404	0.113586
848.296	0.785415
851.189	0.746434
854.082	0.736665
856.974	0.925723
859.867	0.73463
862.76	0.824669
865.653	1.31512
868.545	0.701188
871.438	0.906709
874.331	1.18037
877.223	0.663738
880.116	0.89668
883.009	1.27651
885.901	0.860197
888.794	0.559567
891.687	0.640973
894.58	0.719287
897.472	0.086028
900.365	0.420168
903.258	0.442906
906.15	0.360511
909.043	0.091079
911.936	0.088837
914.828	0.035621
917.721	0.176123
920.614	0.552103
923.506	0.465969
926.399	0.099759
929.292	0.026529
932.185	0.333044
935.077	0.039873
937.97	0.000637
940.863	0.166888
943.755	0.537239
946.648	0.077104
949.541	0.489451
952.434	0.101555
955.326	0.157534
958.219	0.210728
961.112	0.645232
964.004	0.879497
966.897	0.913544
969.79	0.689139
972.683	0.738852
975.575	0.498481
978.468	0.364863
981.361	0.398559
984.253	0.554315
987.146	0.325822
990.039	0.363671
992.931	0.397048
995.824	0.199055
998.717	0.84009
1001.61	0.081579
1004.5	0.296722
1007.39	0.441695
1010.29	0.131744
1013.18	0.377316
1016.07	0.077059
1018.97	0.516518
1021.86	0.199993
1024.75	0.177292
1027.64	0.779709
1030.54	0.953211
1033.43	1.54304
1036.32	1.23802
1039.21	2.1432
1042.11	2.33858
1045	2.06871
1047.89	1.03
1050.79	1.87303
1053.68	0.645442
1056.57	0.708436
1059.46	0.460448
1062.36	0.524586
1065.25	0.148372
1068.14	0.114484
1071.03	0.517926
1073.93	0.637109
1076.82	0.12691
1079.71	0.177557
1082.61	0.27745
1085.5	0.421098
1088.39	1.0803
1091.28	0.542789
1094.18	0.885681
1097.07	0.381493
1099.96	0.684223
1102.85	0.835976
1105.75	0.524326
1108.64	0.210931
1111.53	0.757763
1114.42	0.101593
1117.32	0.286748
1120.21	0.063844
1123.1	0.241099
1126	0.011968
1128.89	0.145913
1131.78	0.557446
1134.67	0.462158
1137.57	0.368185
1140.46	0.483551
1143.35	0.680754
1146.24	0.675016
1149.14	0.895669
1152.03	0.934941
1154.92	0.698889
1157.82	0.731425
1160.71	0.906805
1163.6	0.391773
1166.49	0.431892
1169.39	0.426734
1172.28	0.028743
1175.17	0.436975
1178.06	0.374462
1180.96	0.223715
1183.85	0.255398
1186.74	0.25191
1189.63	0.038971
1192.53	0.317415
1195.42	0.549534
1198.31	0.378009
1201.21	0.821098
1204.1	0.732495
1206.99	0.440134
1209.88	0.368938
1212.78	0.004054
