Measurement: Raman, 532 nm, unoriented, Raman Data Processed
Mineral: Zykaite
Rruff sample: R070477
Ideal chemistry: Fe^3+^_4_(As^5+^O_4_)_3_S^6+^O_4_(OH)15H_2_O
Locality: Christbescherung mine, Gro√üvoigtsberg, Freiberg District, Erzgebirge, Saxony, Germany
Source: Michael Scott
Description: Very small acicular crystals forming a coating of tan colored nodules
Raman shift (cm-1)	intensity
147.263	0
150.155	11.439
153.048	291.355
155.941	540.596
158.833	679.027
161.726	549.645
164.619	480.845
167.512	504.232
170.404	556.445
173.297	635.293
176.19	689.188
179.082	669.876
181.975	660.871
184.868	750.895
187.761	899.812
190.653	1015.88
193.546	1141.54
196.439	1210.01
199.331	1310.69
202.224	1472.06
205.117	1439.19
208.009	1346.39
210.902	1287.48
213.795	1078.91
216.688	879.269
219.58	766.039
222.473	626.47
225.366	599.367
228.258	439.966
231.151	231.361
234.044	182.034
236.936	37.4077
239.829	27.0615
242.722	27.958
245.614	43.0874
248.507	17.0366
251.4	60.2515
254.293	119.133
257.185	187.473
260.078	275.128
262.971	330.585
265.863	520.746
268.756	606.512
271.649	718.621
274.541	808.298
277.434	910.964
280.327	921.023
283.22	845.666
286.112	873.771
289.005	741.638
291.898	702.206
294.79	553.672
297.683	489.554
300.576	516.374
303.469	440.695
306.361	407.614
309.254	458.617
312.147	337.682
315.039	332.037
317.932	343.997
320.825	272.255
323.717	328.012
326.61	270.233
329.503	227.855
332.396	194.892
335.288	190.502
338.181	132.712
341.074	121.222
343.966	13.1352
346.859	4.71875
349.752	115.467
352.644	29.7979
355.537	43.2793
358.43	28.8711
361.322	56.1475
364.215	29.1494
367.108	7.53271
370.001	34.9517
372.893	43.3086
375.786	149.511
378.679	258.465
381.572	285.877
384.464	359.027
387.357	498.476
390.25	643.329
393.142	753.432
396.035	922.16
398.928	1066.9
401.82	1266.27
404.713	1419.91
407.606	1539.26
410.498	1677.51
413.391	1932.18
416.284	2046.63
419.177	2164.86
422.069	2273.25
424.962	2538.4
427.855	2680.13
430.747	2794.56
433.64	2949.07
436.533	3042.36
439.425	3069.05
442.318	2977.77
445.211	2852.87
448.104	2644.64
450.996	2485.9
453.889	2277.45
456.782	2088.96
459.674	1861.29
462.567	1748.18
465.46	1540.83
468.353	1571.7
471.245	1458.71
474.138	1318.62
477.031	1314.41
479.923	1268.98
482.816	1209.52
485.709	1169.92
488.601	1048.46
491.494	971.518
494.387	822.835
497.279	684.251
500.172	619.097
503.065	468.127
505.958	400.14
508.85	313.841
511.743	268.81
514.636	171.297
517.528	88.4731
520.421	81.8901
523.314	1.53369
526.207	4.4126
529.099	5.83154
531.992	11.4604
534.885	6.97705
537.777	2.12744
540.67	17.2436
543.563	26.7095
546.455	5.84424
549.348	23.3125
552.241	10.1157
555.134	33.1733
558.026	28.4936
560.919	33.8198
563.812	42.5376
566.704	2.94922
569.597	12.2041
572.49	8.81641
575.382	67.8599
578.275	60.6733
581.168	63.0493
584.061	75.051
586.953	142.18
589.846	158.293
592.739	219.331
595.631	253.285
598.524	234.483
601.417	216.97
604.309	264.17
607.202	310.743
610.095	320.305
612.987	323.723
615.88	350.878
618.773	402.811
621.666	353.418
624.558	355.053
627.451	383.213
630.344	382.183
633.236	424.873
636.129	392.418
639.022	439.752
641.915	421.401
644.807	456.174
647.7	444.857
650.593	415.338
653.485	350.072
656.378	334.367
659.271	378.844
662.163	364.833
665.056	335.722
667.949	336.098
670.842	381.936
673.734	354.632
676.627	386.036
679.52	335.588
682.412	352.441
685.305	344.909
688.198	333.808
691.091	337.196
693.983	348.43
696.876	311.531
699.769	310.3
702.661	320.559
705.554	291.932
708.447	226.975
711.339	187.469
714.232	163.217
717.125	173.597
720.018	50.1841
722.91	87.7139
725.803	113.277
728.696	13.2646
731.588	17.2895
734.481	12.8726
737.374	33.7647
740.266	48.0727
743.159	95.2007
746.052	49.4268
748.944	41.0395
751.837	35.8042
754.73	113.401
757.623	50.1289
760.515	8.70947
763.408	46.043
766.301	127.664
769.193	324.211
772.086	508.033
774.979	716.727
777.871	928.268
780.764	1272.02
783.657	1691.69
786.55	2174
789.442	2556.59
792.335	2982.65
795.228	3224.08
798.12	3643.98
801.013	3839.73
803.906	4068.98
806.798	4214.5
809.691	4287.1
812.584	4392.08
815.477	4428.46
818.369	4368.88
821.262	4370.4
824.155	4341.47
827.047	4237.06
829.94	4186.53
832.833	4062.6
835.726	3889.34
838.618	3591.13
841.511	3323.95
844.404	2859.53
847.296	2398.85
850.189	1860.26
853.082	1439.96
855.975	1122.98
858.867	861.7
861.76	675.875
864.653	613.44
867.545	600.19
870.438	597.507
873.331	693.736
876.223	708.115
879.116	871.105
882.009	980.796
884.902	1045.77
887.794	1143.52
890.687	1209.39
893.58	1239.43
896.472	1230.27
899.365	1120.4
902.258	1128.3
905.15	1070.84
908.043	951.03
910.936	842.676
913.828	659.385
916.721	625.71
919.614	543.644
922.507	429.397
925.399	395.101
928.292	351.554
931.185	207.849
934.077	136.334
936.97	87.4014
939.863	33.9526
942.755	57.0552
945.648	13.1206
948.541	42.7534
951.434	54.5649
954.326	154.989
957.219	104.129
960.112	76.5586
963.004	18.9756
965.897	3.13184
968.79	28.6768
971.683	96.8379
974.575	214.826
977.468	298.466
980.361	399.169
983.253	502.653
986.146	782.051
989.039	1067.77
991.931	1137.76
994.824	1304.27
997.717	1308.25
1000.61	1272.7
1003.5	1131.81
1006.39	1015.55
1009.29	881.938
1012.18	721.54
1015.07	530.251
1017.97	413.016
1020.86	330.643
1023.75	252.357
1026.64	237.994
1029.54	224.179
1032.43	250.305
1035.32	240.444
1038.21	208.219
1041.11	249.159
1044	284.711
1046.89	333.072
1049.79	331.835
1052.68	316.181
1055.57	339.882
1058.46	308.831
1061.36	337.61
1064.25	377.912
1067.14	317.237
1070.03	313.821
1072.93	243.542
1075.82	233.325
1078.71	140.038
1081.61	154.458
1084.5	152.002
1087.39	91.8667
1090.28	64.6011
1093.18	91.4927
1096.07	114.698
1098.96	166.284
1101.85	189.903
1104.75	210.278
1107.64	332.785
1110.53	339.697
1113.42	389.567
1116.32	417.952
1119.21	333.025
1122.1	315.211
1125	277.927
1127.89	219.303
1130.78	173.191
1133.67	137.726
1136.57	96.9424
1139.46	108.532
1142.35	52.0269
1145.24	22.1201
1148.14	8.35498
1151.03	11.4829
1153.92	19.0659
1156.82	15.0845
1159.71	17.2207
1162.6	15.6863
1165.49	11.7224
1168.39	3.69116
1171.28	24.1133
1174.17	30.0903
1177.06	39.4233
1179.96	91.7988
1182.85	60.4741
1185.74	72.845
1188.63	52.6572
1191.53	65.7639
1194.42	58.6714
1197.31	68.6133
1200.21	67.3613
1203.1	102.608
1205.99	12.5908
1208.88	23.1904
1211.78	45.4019
1214.67	66.9773
1217.56	56.4522
1220.45	101.604
1223.35	81.8857
1226.24	54.6187
1229.13	32.4465
1232.03	73.9363
1234.92	54.3784
1237.81	16.6416
1240.7	74.1211
1243.6	49.1438
1246.49	2.90552
1249.38	29.8296
1252.28	32.8787
1255.17	66.0776
1258.06	18.9734
1260.95	89.4033
1263.85	94.9153
1266.74	48.9858
1269.63	36.2234
1272.52	31.0273
1275.42	58.9124
1278.31	44.606
1281.2	3.36963
1284.09	44.6191
1286.99	19.8957
1289.88	13.342
