Measurement: Raman, 785 nm, unoriented, Raman Data Processed
Mineral: Zykaite
Rruff sample: R070477
Ideal chemistry: Fe^3+^_4_(As^5+^O_4_)_3_S^6+^O_4_(OH)15H_2_O
Locality: Christbescherung mine, Gro√üvoigtsberg, Freiberg District, Erzgebirge, Saxony, Germany
Source: Michael Scott
Description: Very small acicular crystals forming a coating of tan colored nodules
Raman shift (cm-1)	intensity
145.506	0
148.398	353.625
151.291	712.28
154.184	572.51
157.076	613.347
159.969	960.268
162.862	1335.32
165.754	1432.97
168.647	1201.29
171.54	954.971
174.433	756.598
177.325	784.686
180.218	1049.23
183.111	1208.22
186.003	1365.89
188.896	1520.26
191.789	1634.2
194.681	1700.58
197.574	1599.96
200.467	1275.8
203.359	1061.01
206.252	792.325
209.145	513.673
212.038	343.049
214.93	255.544
217.823	222.002
220.716	170.236
223.608	84.4219
226.501	17.9424
229.394	131.076
232.286	76.1025
235.179	49.499
238.072	59.0254
240.965	80.2012
243.857	158.953
246.75	164.212
249.643	181.457
252.535	283.663
255.428	239.816
258.321	419.919
261.214	421.773
264.106	433.883
266.999	359.783
269.892	230.41
272.784	238.62
275.677	232.918
278.57	227.677
281.462	192.958
284.355	294.616
287.248	273.31
290.14	331.125
293.033	276.703
295.926	221.706
298.819	141.781
301.711	148.026
304.604	62.2827
307.497	86.5957
310.389	75.6763
313.282	125.457
316.175	150.985
319.067	90.5854
321.96	139.254
324.853	123.56
327.746	91.1592
330.638	30.9878
333.531	33.6328
336.424	54.2666
339.316	15.6089
342.209	6.77686
345.102	91.9634
347.995	16.479
350.887	32.0576
353.78	70.375
356.673	25.898
359.565	28.1167
362.458	97.6821
365.351	93.1128
368.243	161.725
371.136	181.235
374.029	168.988
376.921	210.573
379.814	328.281
382.707	329.697
385.6	469.977
388.492	518.219
391.385	613.84
394.278	776.49
397.17	938.967
400.063	993.206
402.956	1137.3
405.849	1312.71
408.741	1514.24
411.634	1739.58
414.527	1877.64
417.419	1930.76
420.312	1969.08
423.205	1825.18
426.097	1737.45
428.99	1552.45
431.883	1367.13
434.776	1167.48
437.668	989.026
440.561	910.105
443.454	731.556
446.346	626.655
449.239	596.788
452.132	558.523
455.024	532.589
457.917	496.997
460.81	436.632
463.702	354.764
466.595	368.081
469.488	286.883
472.381	232.333
475.273	158.553
478.166	172.854
481.059	123.479
483.951	178.312
486.844	138.583
489.737	138.028
492.63	120.368
495.522	88.5518
498.415	114.555
501.308	108.904
504.2	64.3438
507.093	56.7974
509.986	1.01562
512.878	17.1826
515.771	19.2144
518.664	29.0864
521.557	78.6738
524.449	36.1299
527.342	36.3213
530.235	117.092
533.127	169.913
536.02	272.596
538.913	392.415
541.805	451.549
544.698	600.906
547.591	692.439
550.484	678.965
553.376	662.715
556.269	647.937
559.162	544.89
562.054	358.952
564.947	247.93
567.84	212.995
570.732	128.569
573.625	61.0059
576.518	70.689
579.41	21.1426
582.303	3.16602
585.196	24.1904
588.089	13.7832
590.981	10.294
593.874	6.62109
596.767	14.5171
599.659	93.71
602.552	70.3823
605.445	110.702
608.337	126.7
611.23	161.565
614.123	133.06
617.016	207.265
619.908	148.352
622.801	163.934
625.694	143.861
628.586	48.6645
631.479	99.0474
634.372	59.6631
637.264	123.894
640.157	69.8086
643.05	71.6602
645.943	82.0386
648.835	55.6909
651.728	120.905
654.621	87.2017
657.513	53.6851
660.406	30.648
663.299	76.1929
666.192	91.6977
669.084	72.3979
671.977	42.7446
674.87	104.763
677.762	71.6758
680.655	55.4839
683.548	34.7651
686.44	67.6943
689.333	78.6221
692.226	61.8565
695.119	105.363
698.011	36.2891
700.904	57.0693
703.797	101.155
706.689	72.7954
709.582	50.397
712.475	52.5156
715.367	80.5049
718.26	69.645
721.153	53.2412
724.045	56.3628
726.938	59.249
729.831	2.68945
732.724	54.1519
735.616	0.478516
738.509	8.8584
741.402	49.5356
744.294	41.2344
747.187	1.88818
750.08	10.0723
752.972	3.4331
755.865	20.0796
758.758	40.8306
761.651	46.8355
764.543	12.3838
767.436	17.4702
770.329	15.188
773.221	1.58154
776.114	28.665
779.007	17.3779
781.899	64.2319
784.792	103.091
787.685	125.577
790.578	236.066
793.47	274.965
796.363	505.593
799.256	597.206
802.148	745.854
805.041	925.737
807.934	1053.56
810.827	1112.54
813.719	1153.1
816.612	1152.49
819.505	1125.27
822.397	1136.26
825.29	1106.17
828.183	954.368
831.075	1019.55
833.968	838.762
836.861	801.589
839.753	663.024
842.646	584.077
845.539	547.792
848.432	445.296
851.324	412.781
854.217	329.087
857.11	274.196
860.002	228.69
862.895	231.846
865.788	281.698
868.68	282.44
871.573	310.865
874.466	351.234
877.359	420.634
880.251	490.144
883.144	579.857
886.037	629.107
888.929	590.89
891.822	588.905
894.715	491.235
897.607	411.272
900.5	439.182
903.393	454.922
906.285	459.799
909.178	525.144
912.071	503.946
914.964	528.444
917.856	453.806
920.749	349.125
923.642	263.084
926.534	169.269
929.427	155.969
932.32	93.2602
935.212	31.043
938.105	10.5156
940.998	9.52685
943.891	5.62354
946.783	10.5532
949.676	18.1851
952.569	17.834
955.461	61.6704
958.354	4.61182
961.247	37.0418
964.139	45.8125
967.032	20.7895
969.925	55.4228
972.818	99.3945
975.71	124.691
978.603	160.735
981.496	231.893
984.388	262.973
987.281	316.327
990.174	414.267
993.067	550.216
995.959	656.72
998.852	668.524
1001.75	686.05
1004.64	628.895
1007.53	562.864
1010.42	513.427
1013.32	402.852
1016.21	358.375
1019.1	249.689
1021.99	197.078
1024.89	241.899
1027.78	223.36
1030.67	236.161
1033.56	249.73
1036.46	302.538
1039.35	392.805
1042.24	486.514
1045.13	585.731
1048.03	689.85
1050.92	711.886
1053.81	664.28
1056.71	558.564
1059.6	468.42
1062.49	360.869
1065.38	254.377
1068.28	211.46
1071.17	116.908
1074.06	130.294
1076.95	81.3127
1079.85	46.6836
1082.74	0.02002
1085.63	22.6831
1088.53	5.00928
1091.42	14.3977
1094.31	28.9084
1097.2	11.6638
1100.1	6.29712
1102.99	55.658
1105.88	27.8491
1108.78	0.168945
1111.67	81.6826
1114.56	100.951
1117.45	155.013
1120.35	189.617
1123.24	162.494
1126.13	228.905
1129.02	216.382
1131.92	216.645
1134.81	169.074
1137.7	141.928
1140.59	42.3574
1143.49	48.3821
1146.38	29.6331
1149.27	16.3264
1152.16	26.9019
1155.06	13.7517
1157.95	2.01269
1160.84	8.03662
1163.74	8.17651
1166.63	4.36963
1169.52	25.8899
1172.41	56.1946
1175.31	69.8254
1178.2	68.3848
1181.09	75.3894
1183.98	60.6965
1186.88	62.2095
1189.77	8.01099
1192.66	99.9634
1195.56	44.78
1198.45	40.5312
1201.34	9.66602
1204.23	5.71948
1207.13	52.3906
1210.02	3.9707
1212.91	23.2634
1215.8	44.1975
1218.7	40.9878
1221.59	51.8484
1224.48	48.29
1227.38	25.001
1230.27	48.3782
1233.16	83.0762
1236.05	53.6619
1238.95	65.0725
1241.84	48.6352
1244.73	35.1763
1247.62	42.9392
1250.52	41.325
1253.41	74.3059
1256.3	32.3865
1259.19	4.48926
1262.09	91.0527
1264.98	36.8787
